[2024-03-11 09:46:10][INFO][216086.admin1] In prologue, JOB_ID is 216086.admin1
[2024-03-11 09:46:10][INFO][216086.admin1] In prologue, the pbs_server_name is admin1.
admin1
[2024-03-11 09:46:15][INFO][216086.admin1] ########################  Job 216086.admin1 start to execute pre.sh!   ##########################
[2024-03-11 09:46:15][INFO][216086.admin1] Goldenable & storageenable both are false, job ran without making reserve!
*************   S T A R T I N G   G E O S - C H E M   *************

===> Mode of operation         : GEOS-Chem "Classic"
===> GEOS-Chem version         : 14.0.1
===> Compiler                  : Intel Fortran Compiler (aka ifort)
===> Flexible precision set to : 8-byte real (aka REAL*8)
===> Parallelization w/ OpenMP : ON
===> Binary punch diagnostics  : OFF
===> netCDF diagnostics        : ON
===> netCDF file compression   : SUPPORTED
===> Luo et al (2019) wetdep?  : OFF

===> SIMULATION START TIME: 2024/03/11 09:46 <===

===============================================================================
G E O S - C H E M   U S E R   I N P U T

READ_INPUT_FILE: Opening ./geoschem_config.yml

SIMULATION SETTINGS
-------------------
Simulation name             : fullchem
CHEM_INPUTS directory       : /public/home/wangyuexuanzi/3.DATA/GEOS-Chem/ExtData/CHEM_INPUTS/
Species database file       : ./species_database.yml
Turn on debug output        :     F
Start time of run           : 20230101 000000
End time of run             : 20240101 000000
Data Directory              : /public/home/wangyuexuanzi/3.DATA/GEOS-Chem/ExtData/
Meteorology field           : GEOSFP
Turn on GEOS-Chem timers    :     F

GRID SETTINGS
------------
Grid resolution             : 2.0x2.5
Min/max longitude           :  -180.0000   180.0000
Min/max latitude            :   -90.0000    90.0000
X grid dimension            :   144
Y grid dimension            :    91
Z grid dimension            :    47
Use half-sized polar boxes? :     T
Center on Intl Date Line?   :     T
Is this a nested-grid sim?  :     F
 --> Buffer zone (N S E W ) :     0    0    0    0

TIMESTEP SETTINGS
-----------------
Transport/Convection [sec]  :   600
Chemistry/Emissions  [sec]  :  1200
RRTMG rad transfer   [sec]  : 10800

TRANSPORT SETTINGS
------------------
Turn on transport?          :     T
Let TPCORE Fill negatives?  :     T
IORD, JORD, KORD for TPCORE?:     3    3    7

CONVECTION SETTINGS
-------------------
Turn on cloud convection?   :     T

PBL MIXING SETTINGS
-------------------
Turn on PBL mixing?         :     T
Turn on non-local PBL?      :     T

AEROSOL SETTINGS
----------------
Online SULFATE AEROSOLS?    :     T
Metal catalyzed SO2 ox.?    :     T
Online CARBON AEROSOLS?     :     T
Brown Carbon Aerosol?       :     F
BC Absorption Enhancement?  :     T
Hydrophilic BC AE factor    :     1.50
Hydrophobic BC AE factor    :     1.00
Online COMPLEX SOA?         :     F
Semivolatile POA?           :     F
Online DUST AEROSOLS?       :     T
Acid uptake on dust?        :     F
Online SEA SALT AEROSOLS?   :     T
Accum  SEA SALT radii [um]  :     0.01 -     0.50
Coarse SEA SALT radii [um]  :     0.50 -     8.00
MARINE ORGANIC AEROSOLS?    :     F
Settle strat. aerosols?     :     T
Online SOLID PSC aerosols?  :     T
Allow hom. NAT nucleation?  :     F
NAT supercooling requirement:     3.00K
Ice supersaturation req.    :    20.00K
Perform PSC het. chemistry? :     T
Use strat. aerosol OD?      :     T

DRY DEPOSITION SETTINGS
-----------------------
Turn on dry deposition?     :     T
Dry dep over full PBL?      :     F
Turn on CO2 effect?         :     F
CO2 level                   :   600.00
CO2 reference level         :   380.00
RIX scaling factor          :     1.00

WET DEPOSITION SETTINGS
-----------------------
Turn on wet deposition?     :     T

CHEMISTRY SETTINGS
------------------
Turn on chemistry?          :     T
Use linear. mesospheric chem:     T
 => Use Linoz for O3?       :     T
Online strat. H2O?          :     T
Use robust strat H2O BC?    :     T
GAMMA HO2                   : 0.20

PHOTOLYSIS SETTINGS
-------------------
FAST-JX input directory     : /public/home/wangyuexuanzi/3.DATA/GEOS-Chem/ExtData/CHEM_INPUTS/FAST_JX/v2021-10/
Online ozone for FAST-JX?   :     T
Ozone from met for FAST-JX? :     T
TOMS/SBUV ozone for FAST-JX?:     F
Photolyse nitrate aerosol?  :     F
JNITs scaling of JHNO3      :    0.000
JNIT scaling of JHNO3       :    0.000
JNIT(s) channel A (HONO)    :   66.667
JNIT(s) channel B (NO2)     :   33.333

NOTE ABOUT OVERHEAD O3 FOR FAST-JX:
 Online O3 from GEOS-Chem will be used
 to weight the O3 column within the
 chemistry grid and O3 from met or TOMS
 will be used outside the chemistry grid.

RRTMG SETTINGS
--------------
AOD output wavelength (nm)  :   550.0
Turn on radiation?          :     F
Consider longwave?          :     F
Consider shortwave?         :     F
Clear-sky flux?             :     F
All-sky flux?               :     F

OBSPACK SETTINGS
----------------
Turn on ObsPack diagnostic? :     F
Suppress logfile output?    :     F
ObsPack input file          : ./obspack_co2_1_OCO2MIP_2018-11-28.YYYYMMDD.nc
ObsPack output file         : /public/work/wangyuexuanzi/OUTPUT/GEOS-Chem/FIRE_hr/gc_GFED_basecase/GEOSChem.ObsPack.YYYYMMDD_hhmmz.nc4

PLANEFLIGHT DIAGNOSTIC SETTINGS
-------------------------------
Turn on planeflight diag?   :     F
Flight track input file     : Planeflight.dat.YYYYMMDD
Output file name            : plane.log.YYYYMMDD

TIMESTEPS SETTINGS
------------------
Chemistry  Timestep [sec]   :   1200
Convection Timestep [sec]   :    600
Dynamics   Timestep [sec]   :    600
Emission   Timestep [sec]   :   1200
Unit Conv  Timestep [sec]   :    600
Diagnostic Timestep [sec]   :   1200
Radiation  Timestep [sec]   :  10800

%%%%%%%%%%%%%%% GLOBAL GRID %%%%%%%%%%%%%%%

Grid box longitude centers [degrees]: 
-180.00000 -177.50000 -175.00000 -172.50000 -170.00000 -167.50000 -165.00000
-162.50000 -160.00000 -157.50000 -155.00000 -152.50000 -150.00000 -147.50000
-145.00000 -142.50000 -140.00000 -137.50000 -135.00000 -132.50000 -130.00000
-127.50000 -125.00000 -122.50000 -120.00000 -117.50000 -115.00000 -112.50000
-110.00000 -107.50000 -105.00000 -102.50000 -100.00000  -97.50000  -95.00000
 -92.50000  -90.00000  -87.50000  -85.00000  -82.50000  -80.00000  -77.50000
 -75.00000  -72.50000  -70.00000  -67.50000  -65.00000  -62.50000  -60.00000
 -57.50000  -55.00000  -52.50000  -50.00000  -47.50000  -45.00000  -42.50000
 -40.00000  -37.50000  -35.00000  -32.50000  -30.00000  -27.50000  -25.00000
 -22.50000  -20.00000  -17.50000  -15.00000  -12.50000  -10.00000   -7.50000
  -5.00000   -2.50000    0.00000    2.50000    5.00000    7.50000   10.00000
  12.50000   15.00000   17.50000   20.00000   22.50000   25.00000   27.50000
  30.00000   32.50000   35.00000   37.50000   40.00000   42.50000   45.00000
  47.50000   50.00000   52.50000   55.00000   57.50000   60.00000   62.50000
  65.00000   67.50000   70.00000   72.50000   75.00000   77.50000   80.00000
  82.50000   85.00000   87.50000   90.00000   92.50000   95.00000   97.50000
 100.00000  102.50000  105.00000  107.50000  110.00000  112.50000  115.00000
 117.50000  120.00000  122.50000  125.00000  127.50000  130.00000  132.50000
 135.00000  137.50000  140.00000  142.50000  145.00000  147.50000  150.00000
 152.50000  155.00000  157.50000  160.00000  162.50000  165.00000  167.50000
 170.00000  172.50000  175.00000  177.50000

Grid box latitude centers [degrees]: 
 -89.50000  -88.00000  -86.00000  -84.00000  -82.00000  -80.00000  -78.00000
 -76.00000  -74.00000  -72.00000  -70.00000  -68.00000  -66.00000  -64.00000
 -62.00000  -60.00000  -58.00000  -56.00000  -54.00000  -52.00000  -50.00000
 -48.00000  -46.00000  -44.00000  -42.00000  -40.00000  -38.00000  -36.00000
 -34.00000  -32.00000  -30.00000  -28.00000  -26.00000  -24.00000  -22.00000
 -20.00000  -18.00000  -16.00000  -14.00000  -12.00000  -10.00000   -8.00000
  -6.00000   -4.00000   -2.00000    0.00000    2.00000    4.00000    6.00000
   8.00000   10.00000   12.00000   14.00000   16.00000   18.00000   20.00000
  22.00000   24.00000   26.00000   28.00000   30.00000   32.00000   34.00000
  36.00000   38.00000   40.00000   42.00000   44.00000   46.00000   48.00000
  50.00000   52.00000   54.00000   56.00000   58.00000   60.00000   62.00000
  64.00000   66.00000   68.00000   70.00000   72.00000   74.00000   76.00000
  78.00000   80.00000   82.00000   84.00000   86.00000   88.00000   89.50000

%%%%%%%%%%%% USER-DEFINED GRID %%%%%%%%%%%%

  XMinOffset :            0
  XMaxOffset :          143
  YMinOffset :            0
  YMaxOffset :           90


Grid box longitude centers [degrees]: 
-180.00000 -177.50000 -175.00000 -172.50000 -170.00000 -167.50000 -165.00000
-162.50000 -160.00000 -157.50000 -155.00000 -152.50000 -150.00000 -147.50000
-145.00000 -142.50000 -140.00000 -137.50000 -135.00000 -132.50000 -130.00000
-127.50000 -125.00000 -122.50000 -120.00000 -117.50000 -115.00000 -112.50000
-110.00000 -107.50000 -105.00000 -102.50000 -100.00000  -97.50000  -95.00000
 -92.50000  -90.00000  -87.50000  -85.00000  -82.50000  -80.00000  -77.50000
 -75.00000  -72.50000  -70.00000  -67.50000  -65.00000  -62.50000  -60.00000
 -57.50000  -55.00000  -52.50000  -50.00000  -47.50000  -45.00000  -42.50000
 -40.00000  -37.50000  -35.00000  -32.50000  -30.00000  -27.50000  -25.00000
 -22.50000  -20.00000  -17.50000  -15.00000  -12.50000  -10.00000   -7.50000
  -5.00000   -2.50000    0.00000    2.50000    5.00000    7.50000   10.00000
  12.50000   15.00000   17.50000   20.00000   22.50000   25.00000   27.50000
  30.00000   32.50000   35.00000   37.50000   40.00000   42.50000   45.00000
  47.50000   50.00000   52.50000   55.00000   57.50000   60.00000   62.50000
  65.00000   67.50000   70.00000   72.50000   75.00000   77.50000   80.00000
  82.50000   85.00000   87.50000   90.00000   92.50000   95.00000   97.50000
 100.00000  102.50000  105.00000  107.50000  110.00000  112.50000  115.00000
 117.50000  120.00000  122.50000  125.00000  127.50000  130.00000  132.50000
 135.00000  137.50000  140.00000  142.50000  145.00000  147.50000  150.00000
 152.50000  155.00000  157.50000  160.00000  162.50000  165.00000  167.50000
 170.00000  172.50000  175.00000  177.50000

Grid box longitude edges [degrees]: 
-181.25000 -178.75000 -176.25000 -173.75000 -171.25000 -168.75000 -166.25000
-163.75000 -161.25000 -158.75000 -156.25000 -153.75000 -151.25000 -148.75000
-146.25000 -143.75000 -141.25000 -138.75000 -136.25000 -133.75000 -131.25000
-128.75000 -126.25000 -123.75000 -121.25000 -118.75000 -116.25000 -113.75000
-111.25000 -108.75000 -106.25000 -103.75000 -101.25000  -98.75000  -96.25000
 -93.75000  -91.25000  -88.75000  -86.25000  -83.75000  -81.25000  -78.75000
 -76.25000  -73.75000  -71.25000  -68.75000  -66.25000  -63.75000  -61.25000
 -58.75000  -56.25000  -53.75000  -51.25000  -48.75000  -46.25000  -43.75000
 -41.25000  -38.75000  -36.25000  -33.75000  -31.25000  -28.75000  -26.25000
 -23.75000  -21.25000  -18.75000  -16.25000  -13.75000  -11.25000   -8.75000
  -6.25000   -3.75000   -1.25000    1.25000    3.75000    6.25000    8.75000
  11.25000   13.75000   16.25000   18.75000   21.25000   23.75000   26.25000
  28.75000   31.25000   33.75000   36.25000   38.75000   41.25000   43.75000
  46.25000   48.75000   51.25000   53.75000   56.25000   58.75000   61.25000
  63.75000   66.25000   68.75000   71.25000   73.75000   76.25000   78.75000
  81.25000   83.75000   86.25000   88.75000   91.25000   93.75000   96.25000
  98.75000  101.25000  103.75000  106.25000  108.75000  111.25000  113.75000
 116.25000  118.75000  121.25000  123.75000  126.25000  128.75000  131.25000
 133.75000  136.25000  138.75000  141.25000  143.75000  146.25000  148.75000
 151.25000  153.75000  156.25000  158.75000  161.25000  163.75000  166.25000
 168.75000  171.25000  173.75000  176.25000  178.75000

Grid box latitude centers [degrees]: 
 -89.50000  -88.00000  -86.00000  -84.00000  -82.00000  -80.00000  -78.00000
 -76.00000  -74.00000  -72.00000  -70.00000  -68.00000  -66.00000  -64.00000
 -62.00000  -60.00000  -58.00000  -56.00000  -54.00000  -52.00000  -50.00000
 -48.00000  -46.00000  -44.00000  -42.00000  -40.00000  -38.00000  -36.00000
 -34.00000  -32.00000  -30.00000  -28.00000  -26.00000  -24.00000  -22.00000
 -20.00000  -18.00000  -16.00000  -14.00000  -12.00000  -10.00000   -8.00000
  -6.00000   -4.00000   -2.00000    0.00000    2.00000    4.00000    6.00000
   8.00000   10.00000   12.00000   14.00000   16.00000   18.00000   20.00000
  22.00000   24.00000   26.00000   28.00000   30.00000   32.00000   34.00000
  36.00000   38.00000   40.00000   42.00000   44.00000   46.00000   48.00000
  50.00000   52.00000   54.00000   56.00000   58.00000   60.00000   62.00000
  64.00000   66.00000   68.00000   70.00000   72.00000   74.00000   76.00000
  78.00000   80.00000   82.00000   84.00000   86.00000   88.00000   89.50000

Grid box latitude edges [degrees]: 
 -90.00000  -89.00000  -87.00000  -85.00000  -83.00000  -81.00000  -79.00000
 -77.00000  -75.00000  -73.00000  -71.00000  -69.00000  -67.00000  -65.00000
 -63.00000  -61.00000  -59.00000  -57.00000  -55.00000  -53.00000  -51.00000
 -49.00000  -47.00000  -45.00000  -43.00000  -41.00000  -39.00000  -37.00000
 -35.00000  -33.00000  -31.00000  -29.00000  -27.00000  -25.00000  -23.00000
 -21.00000  -19.00000  -17.00000  -15.00000  -13.00000  -11.00000   -9.00000
  -7.00000   -5.00000   -3.00000   -1.00000    1.00000    3.00000    5.00000
   7.00000    9.00000   11.00000   13.00000   15.00000   17.00000   19.00000
  21.00000   23.00000   25.00000   27.00000   29.00000   31.00000   33.00000
  35.00000   37.00000   39.00000   41.00000   43.00000   45.00000   47.00000
  49.00000   51.00000   53.00000   55.00000   57.00000   59.00000   61.00000
  63.00000   65.00000   67.00000   69.00000   71.00000   73.00000   75.00000
  77.00000   79.00000   81.00000   83.00000   85.00000   87.00000   89.00000
  90.00000

SIN( grid box latitude edges )
  -1.00000   -0.99985   -0.99863   -0.99619   -0.99255   -0.98769   -0.98163
  -0.97437   -0.96593   -0.95630   -0.94552   -0.93358   -0.92050   -0.90631
  -0.89101   -0.87462   -0.85717   -0.83867   -0.81915   -0.79864   -0.77715
  -0.75471   -0.73135   -0.70711   -0.68200   -0.65606   -0.62932   -0.60182
  -0.57358   -0.54464   -0.51504   -0.48481   -0.45399   -0.42262   -0.39073
  -0.35837   -0.32557   -0.29237   -0.25882   -0.22495   -0.19081   -0.15643
  -0.12187   -0.08716   -0.05234   -0.01745    0.01745    0.05234    0.08716
   0.12187    0.15643    0.19081    0.22495    0.25882    0.29237    0.32557
   0.35837    0.39073    0.42262    0.45399    0.48481    0.51504    0.54464
   0.57358    0.60182    0.62932    0.65606    0.68200    0.70711    0.73135
   0.75471    0.77715    0.79864    0.81915    0.83867    0.85717    0.87462
   0.89101    0.90631    0.92050    0.93358    0.94552    0.95630    0.96593
   0.97437    0.98163    0.98769    0.99255    0.99619    0.99863    0.99985
   1.00000
  
 ======================
 Contents of  CollList
  
 Aerosols
  

ADVECTED SPECIES MENU
------------------------------------------------
  #  Species Name
  1  ACET                           
  2  ACTA                           
  3  AERI                           
  4  ALD2                           
  5  ALK4                           
  6  AONITA                         
  7  AROMP4                         
  8  AROMP5                         
  9  ATOOH                          
 10  BALD                           
 11  BCPI                           
 12  BCPO                           
 13  BENZ                           
 14  BENZP                          
 15  Br                             
 16  Br2                            
 17  BrCl                           
 18  BrNO2                          
 19  BrNO3                          
 20  BrO                            
 21  BrSALA                         
 22  BrSALC                         
 23  BZCO3H                         
 24  BZPAN                          
 25  C2H2                           
 26  C2H4                           
 27  C2H6                           
 28  C3H8                           
 29  CCl4                           
 30  CFC11                          
 31  CFC113                         
 32  CFC114                         
 33  CFC115                         
 34  CFC12                          
 35  CH2Br2                         
 36  CH2Cl2                         
 37  CH2I2                          
 38  CH2IBr                         
 39  CH2ICl                         
 40  CH2O                           
 41  CH3Br                          
 42  CH3CCl3                        
 43  CH3Cl                          
 44  CH3I                           
 45  CH4                            
 46  CHBr3                          
 47  CHCl3                          
 48  Cl                             
 49  Cl2                            
 50  Cl2O2                          
 51  ClNO2                          
 52  ClNO3                          
 53  ClO                            
 54  ClOO                           
 55  CLOCK                          
 56  CO                             
 57  CSL                            
 58  DMS                            
 59  DST1                           
 60  DST2                           
 61  DST3                           
 62  DST4                           
 63  EOH                            
 64  ETHLN                          
 65  ETHN                           
 66  ETHP                           
 67  ETNO3                          
 68  ETP                            
 69  GLYC                           
 70  GLYX                           
 71  H1211                          
 72  H1301                          
 73  H2402                          
 74  H2O                            
 75  H2O2                           
 76  HAC                            
 77  HBr                            
 78  HC5A                           
 79  HCFC123                        
 80  HCFC141b                       
 81  HCFC142b                       
 82  HCFC22                         
 83  HCl                            
 84  HCOOH                          
 85  HI                             
 86  HMHP                           
 87  HMML                           
 88  HMS                            
 89  HNO2                           
 90  HNO3                           
 91  HNO4                           
 92  HOBr                           
 93  HOCl                           
 94  HOI                            
 95  HONIT                          
 96  HPALD1                         
 97  HPALD2                         
 98  HPALD3                         
 99  HPALD4                         
100  HPETHNL                        
101  I                              
102  I2                             
103  I2O2                           
104  I2O3                           
105  I2O4                           
106  IBr                            
107  ICHE                           
108  ICl                            
109  ICN                            
110  ICPDH                          
111  IDC                            
112  IDCHP                          
113  IDHDP                          
114  IDHPE                          
115  IDN                            
116  IEPOXA                         
117  IEPOXB                         
118  IEPOXD                         
119  IHN1                           
120  IHN2                           
121  IHN3                           
122  IHN4                           
123  INDIOL                         
124  INO                            
125  INPB                           
126  INPD                           
127  IO                             
128  IONITA                         
129  IONO                           
130  IONO2                          
131  IPRNO3                         
132  ISALA                          
133  ISALC                          
134  ISOP                           
135  ITCN                           
136  ITHN                           
137  LIMO                           
138  LVOC                           
139  LVOCOA                         
140  MACR                           
141  MACR1OOH                       
142  MAP                            
143  MCRDH                          
144  MCRENOL                        
145  MCRHN                          
146  MCRHNB                         
147  MCRHP                          
148  MCT                            
149  MEK                            
150  MENO3                          
151  MGLY                           
152  MOH                            
153  MONITA                         
154  MONITS                         
155  MONITU                         
156  MP                             
157  MPAN                           
158  MPN                            
159  MSA                            
160  MTPA                           
161  MTPO                           
162  MVK                            
163  MVKDH                          
164  MVKHC                          
165  MVKHCB                         
166  MVKHP                          
167  MVKN                           
168  MVKPC                          
169  N2O                            
170  N2O5                           
171  NH3                            
172  NH4                            
173  NIT                            
174  NITs                           
175  NO                             
176  NO2                            
177  NO3                            
178  NPHEN                          
179  NPRNO3                         
180  O3                             
181  OClO                           
182  OCPI                           
183  OCPO                           
184  OCS                            
185  OIO                            
186  PAN                            
187  pFe                            
188  PHEN                           
189  PIP                            
190  PP                             
191  PPN                            
192  PROPNN                         
193  PRPE                           
194  PRPN                           
195  PYAC                           
196  R4N2                           
197  R4P                            
198  RA3P                           
199  RB3P                           
200  RCHO                           
201  RIPA                           
202  RIPB                           
203  RIPC                           
204  RIPD                           
205  RP                             
206  SALA                           
207  SALAAL                         
208  SALACL                         
209  SALC                           
210  SALCAL                         
211  SALCCL                         
212  SO2                            
213  SO4                            
214  SO4s                           
215  SOAGX                          
216  SOAIE                          
217  SOAP                           
218  SOAS                           
219  TOLU                           
220  XYLE                           

Registered variables contained within the State_Chm object:
===============================================================================
 CHEM_SURFACEFLUX_XYLE          | Surface flux (E-D) f | xy    | kg m-2 s-1
 CHEM_SURFACEFLUX_TOLU          | Surface flux (E-D) f | xy    | kg m-2 s-1
 CHEM_SURFACEFLUX_SOAS          | Surface flux (E-D) f | xy    | kg m-2 s-1
 CHEM_SURFACEFLUX_SOAP          | Surface flux (E-D) f | xy    | kg m-2 s-1
 CHEM_SURFACEFLUX_SOAIE         | Surface flux (E-D) f | xy    | kg m-2 s-1
 CHEM_SURFACEFLUX_SOAGX         | Surface flux (E-D) f | xy    | kg m-2 s-1
 CHEM_SURFACEFLUX_SO4S          | Surface flux (E-D) f | xy    | kg m-2 s-1
 CHEM_SURFACEFLUX_SO4           | Surface flux (E-D) f | xy    | kg m-2 s-1
 CHEM_SURFACEFLUX_SO2           | Surface flux (E-D) f | xy    | kg m-2 s-1
 CHEM_SURFACEFLUX_SALCCL        | Surface flux (E-D) f | xy    | kg m-2 s-1
 CHEM_SURFACEFLUX_SALCAL        | Surface flux (E-D) f | xy    | kg m-2 s-1
 CHEM_SURFACEFLUX_SALC          | Surface flux (E-D) f | xy    | kg m-2 s-1
 CHEM_SURFACEFLUX_SALACL        | Surface flux (E-D) f | xy    | kg m-2 s-1
 CHEM_SURFACEFLUX_SALAAL        | Surface flux (E-D) f | xy    | kg m-2 s-1
 CHEM_SURFACEFLUX_SALA          | Surface flux (E-D) f | xy    | kg m-2 s-1
 CHEM_SURFACEFLUX_RP            | Surface flux (E-D) f | xy    | kg m-2 s-1
 CHEM_SURFACEFLUX_RIPD          | Surface flux (E-D) f | xy    | kg m-2 s-1
 CHEM_SURFACEFLUX_RIPC          | Surface flux (E-D) f | xy    | kg m-2 s-1
 CHEM_SURFACEFLUX_RIPB          | Surface flux (E-D) f | xy    | kg m-2 s-1
 CHEM_SURFACEFLUX_RIPA          | Surface flux (E-D) f | xy    | kg m-2 s-1
 CHEM_SURFACEFLUX_RCHO          | Surface flux (E-D) f | xy    | kg m-2 s-1
 CHEM_SURFACEFLUX_RB3P          | Surface flux (E-D) f | xy    | kg m-2 s-1
 CHEM_SURFACEFLUX_RA3P          | Surface flux (E-D) f | xy    | kg m-2 s-1
 CHEM_SURFACEFLUX_R4P           | Surface flux (E-D) f | xy    | kg m-2 s-1
 CHEM_SURFACEFLUX_R4N2          | Surface flux (E-D) f | xy    | kg m-2 s-1
 CHEM_SURFACEFLUX_PYAC          | Surface flux (E-D) f | xy    | kg m-2 s-1
 CHEM_SURFACEFLUX_PRPN          | Surface flux (E-D) f | xy    | kg m-2 s-1
 CHEM_SURFACEFLUX_PRPE          | Surface flux (E-D) f | xy    | kg m-2 s-1
 CHEM_SURFACEFLUX_PROPNN        | Surface flux (E-D) f | xy    | kg m-2 s-1
 CHEM_SURFACEFLUX_PPN           | Surface flux (E-D) f | xy    | kg m-2 s-1
 CHEM_SURFACEFLUX_PP            | Surface flux (E-D) f | xy    | kg m-2 s-1
 CHEM_SURFACEFLUX_PIP           | Surface flux (E-D) f | xy    | kg m-2 s-1
 CHEM_SURFACEFLUX_PHEN          | Surface flux (E-D) f | xy    | kg m-2 s-1
 CHEM_SURFACEFLUX_PFE           | Surface flux (E-D) f | xy    | kg m-2 s-1
 CHEM_SURFACEFLUX_PAN           | Surface flux (E-D) f | xy    | kg m-2 s-1
 CHEM_SURFACEFLUX_OIO           | Surface flux (E-D) f | xy    | kg m-2 s-1
 CHEM_SURFACEFLUX_OCS           | Surface flux (E-D) f | xy    | kg m-2 s-1
 CHEM_SURFACEFLUX_OCPO          | Surface flux (E-D) f | xy    | kg m-2 s-1
 CHEM_SURFACEFLUX_OCPI          | Surface flux (E-D) f | xy    | kg m-2 s-1
 CHEM_SURFACEFLUX_OCLO          | Surface flux (E-D) f | xy    | kg m-2 s-1
 CHEM_SURFACEFLUX_O3            | Surface flux (E-D) f | xy    | kg m-2 s-1
 CHEM_SURFACEFLUX_NPRNO3        | Surface flux (E-D) f | xy    | kg m-2 s-1
 CHEM_SURFACEFLUX_NPHEN         | Surface flux (E-D) f | xy    | kg m-2 s-1
 CHEM_SURFACEFLUX_NO3           | Surface flux (E-D) f | xy    | kg m-2 s-1
 CHEM_SURFACEFLUX_NO2           | Surface flux (E-D) f | xy    | kg m-2 s-1
 CHEM_SURFACEFLUX_NO            | Surface flux (E-D) f | xy    | kg m-2 s-1
 CHEM_SURFACEFLUX_NITS          | Surface flux (E-D) f | xy    | kg m-2 s-1
 CHEM_SURFACEFLUX_NIT           | Surface flux (E-D) f | xy    | kg m-2 s-1
 CHEM_SURFACEFLUX_NH4           | Surface flux (E-D) f | xy    | kg m-2 s-1
 CHEM_SURFACEFLUX_NH3           | Surface flux (E-D) f | xy    | kg m-2 s-1
 CHEM_SURFACEFLUX_N2O5          | Surface flux (E-D) f | xy    | kg m-2 s-1
 CHEM_SURFACEFLUX_N2O           | Surface flux (E-D) f | xy    | kg m-2 s-1
 CHEM_SURFACEFLUX_MVKPC         | Surface flux (E-D) f | xy    | kg m-2 s-1
 CHEM_SURFACEFLUX_MVKN          | Surface flux (E-D) f | xy    | kg m-2 s-1
 CHEM_SURFACEFLUX_MVKHP         | Surface flux (E-D) f | xy    | kg m-2 s-1
 CHEM_SURFACEFLUX_MVKHCB        | Surface flux (E-D) f | xy    | kg m-2 s-1
 CHEM_SURFACEFLUX_MVKHC         | Surface flux (E-D) f | xy    | kg m-2 s-1
 CHEM_SURFACEFLUX_MVKDH         | Surface flux (E-D) f | xy    | kg m-2 s-1
 CHEM_SURFACEFLUX_MVK           | Surface flux (E-D) f | xy    | kg m-2 s-1
 CHEM_SURFACEFLUX_MTPO          | Surface flux (E-D) f | xy    | kg m-2 s-1
 CHEM_SURFACEFLUX_MTPA          | Surface flux (E-D) f | xy    | kg m-2 s-1
 CHEM_SURFACEFLUX_MSA           | Surface flux (E-D) f | xy    | kg m-2 s-1
 CHEM_SURFACEFLUX_MPN           | Surface flux (E-D) f | xy    | kg m-2 s-1
 CHEM_SURFACEFLUX_MPAN          | Surface flux (E-D) f | xy    | kg m-2 s-1
 CHEM_SURFACEFLUX_MP            | Surface flux (E-D) f | xy    | kg m-2 s-1
 CHEM_SURFACEFLUX_MONITU        | Surface flux (E-D) f | xy    | kg m-2 s-1
 CHEM_SURFACEFLUX_MONITS        | Surface flux (E-D) f | xy    | kg m-2 s-1
 CHEM_SURFACEFLUX_MONITA        | Surface flux (E-D) f | xy    | kg m-2 s-1
 CHEM_SURFACEFLUX_MOH           | Surface flux (E-D) f | xy    | kg m-2 s-1
 CHEM_SURFACEFLUX_MGLY          | Surface flux (E-D) f | xy    | kg m-2 s-1
 CHEM_SURFACEFLUX_MENO3         | Surface flux (E-D) f | xy    | kg m-2 s-1
 CHEM_SURFACEFLUX_MEK           | Surface flux (E-D) f | xy    | kg m-2 s-1
 CHEM_SURFACEFLUX_MCT           | Surface flux (E-D) f | xy    | kg m-2 s-1
 CHEM_SURFACEFLUX_MCRHP         | Surface flux (E-D) f | xy    | kg m-2 s-1
 CHEM_SURFACEFLUX_MCRHNB        | Surface flux (E-D) f | xy    | kg m-2 s-1
 CHEM_SURFACEFLUX_MCRHN         | Surface flux (E-D) f | xy    | kg m-2 s-1
 CHEM_SURFACEFLUX_MCRENOL       | Surface flux (E-D) f | xy    | kg m-2 s-1
 CHEM_SURFACEFLUX_MCRDH         | Surface flux (E-D) f | xy    | kg m-2 s-1
 CHEM_SURFACEFLUX_MAP           | Surface flux (E-D) f | xy    | kg m-2 s-1
 CHEM_SURFACEFLUX_MACR1OOH      | Surface flux (E-D) f | xy    | kg m-2 s-1
 CHEM_SURFACEFLUX_MACR          | Surface flux (E-D) f | xy    | kg m-2 s-1
 CHEM_SURFACEFLUX_LVOCOA        | Surface flux (E-D) f | xy    | kg m-2 s-1
 CHEM_SURFACEFLUX_LVOC          | Surface flux (E-D) f | xy    | kg m-2 s-1
 CHEM_SURFACEFLUX_LIMO          | Surface flux (E-D) f | xy    | kg m-2 s-1
 CHEM_SURFACEFLUX_ITHN          | Surface flux (E-D) f | xy    | kg m-2 s-1
 CHEM_SURFACEFLUX_ITCN          | Surface flux (E-D) f | xy    | kg m-2 s-1
 CHEM_SURFACEFLUX_ISOP          | Surface flux (E-D) f | xy    | kg m-2 s-1
 CHEM_SURFACEFLUX_ISALC         | Surface flux (E-D) f | xy    | kg m-2 s-1
 CHEM_SURFACEFLUX_ISALA         | Surface flux (E-D) f | xy    | kg m-2 s-1
 CHEM_SURFACEFLUX_IPRNO3        | Surface flux (E-D) f | xy    | kg m-2 s-1
 CHEM_SURFACEFLUX_IONO2         | Surface flux (E-D) f | xy    | kg m-2 s-1
 CHEM_SURFACEFLUX_IONO          | Surface flux (E-D) f | xy    | kg m-2 s-1
 CHEM_SURFACEFLUX_IONITA        | Surface flux (E-D) f | xy    | kg m-2 s-1
 CHEM_SURFACEFLUX_IO            | Surface flux (E-D) f | xy    | kg m-2 s-1
 CHEM_SURFACEFLUX_INPD          | Surface flux (E-D) f | xy    | kg m-2 s-1
 CHEM_SURFACEFLUX_INPB          | Surface flux (E-D) f | xy    | kg m-2 s-1
 CHEM_SURFACEFLUX_INO           | Surface flux (E-D) f | xy    | kg m-2 s-1
 CHEM_SURFACEFLUX_INDIOL        | Surface flux (E-D) f | xy    | kg m-2 s-1
 CHEM_SURFACEFLUX_IHN4          | Surface flux (E-D) f | xy    | kg m-2 s-1
 CHEM_SURFACEFLUX_IHN3          | Surface flux (E-D) f | xy    | kg m-2 s-1
 CHEM_SURFACEFLUX_IHN2          | Surface flux (E-D) f | xy    | kg m-2 s-1
 CHEM_SURFACEFLUX_IHN1          | Surface flux (E-D) f | xy    | kg m-2 s-1
 CHEM_SURFACEFLUX_IEPOXD        | Surface flux (E-D) f | xy    | kg m-2 s-1
 CHEM_SURFACEFLUX_IEPOXB        | Surface flux (E-D) f | xy    | kg m-2 s-1
 CHEM_SURFACEFLUX_IEPOXA        | Surface flux (E-D) f | xy    | kg m-2 s-1
 CHEM_SURFACEFLUX_IDN           | Surface flux (E-D) f | xy    | kg m-2 s-1
 CHEM_SURFACEFLUX_IDHPE         | Surface flux (E-D) f | xy    | kg m-2 s-1
 CHEM_SURFACEFLUX_IDHDP         | Surface flux (E-D) f | xy    | kg m-2 s-1
 CHEM_SURFACEFLUX_IDCHP         | Surface flux (E-D) f | xy    | kg m-2 s-1
 CHEM_SURFACEFLUX_IDC           | Surface flux (E-D) f | xy    | kg m-2 s-1
 CHEM_SURFACEFLUX_ICPDH         | Surface flux (E-D) f | xy    | kg m-2 s-1
 CHEM_SURFACEFLUX_ICN           | Surface flux (E-D) f | xy    | kg m-2 s-1
 CHEM_SURFACEFLUX_ICL           | Surface flux (E-D) f | xy    | kg m-2 s-1
 CHEM_SURFACEFLUX_ICHE          | Surface flux (E-D) f | xy    | kg m-2 s-1
 CHEM_SURFACEFLUX_IBR           | Surface flux (E-D) f | xy    | kg m-2 s-1
 CHEM_SURFACEFLUX_I2O4          | Surface flux (E-D) f | xy    | kg m-2 s-1
 CHEM_SURFACEFLUX_I2O3          | Surface flux (E-D) f | xy    | kg m-2 s-1
 CHEM_SURFACEFLUX_I2O2          | Surface flux (E-D) f | xy    | kg m-2 s-1
 CHEM_SURFACEFLUX_I2            | Surface flux (E-D) f | xy    | kg m-2 s-1
 CHEM_SURFACEFLUX_I             | Surface flux (E-D) f | xy    | kg m-2 s-1
 CHEM_SURFACEFLUX_HPETHNL       | Surface flux (E-D) f | xy    | kg m-2 s-1
 CHEM_SURFACEFLUX_HPALD4        | Surface flux (E-D) f | xy    | kg m-2 s-1
 CHEM_SURFACEFLUX_HPALD3        | Surface flux (E-D) f | xy    | kg m-2 s-1
 CHEM_SURFACEFLUX_HPALD2        | Surface flux (E-D) f | xy    | kg m-2 s-1
 CHEM_SURFACEFLUX_HPALD1        | Surface flux (E-D) f | xy    | kg m-2 s-1
 CHEM_SURFACEFLUX_HONIT         | Surface flux (E-D) f | xy    | kg m-2 s-1
 CHEM_SURFACEFLUX_HOI           | Surface flux (E-D) f | xy    | kg m-2 s-1
 CHEM_SURFACEFLUX_HOCL          | Surface flux (E-D) f | xy    | kg m-2 s-1
 CHEM_SURFACEFLUX_HOBR          | Surface flux (E-D) f | xy    | kg m-2 s-1
 CHEM_SURFACEFLUX_HNO4          | Surface flux (E-D) f | xy    | kg m-2 s-1
 CHEM_SURFACEFLUX_HNO3          | Surface flux (E-D) f | xy    | kg m-2 s-1
 CHEM_SURFACEFLUX_HNO2          | Surface flux (E-D) f | xy    | kg m-2 s-1
 CHEM_SURFACEFLUX_HMS           | Surface flux (E-D) f | xy    | kg m-2 s-1
 CHEM_SURFACEFLUX_HMML          | Surface flux (E-D) f | xy    | kg m-2 s-1
 CHEM_SURFACEFLUX_HMHP          | Surface flux (E-D) f | xy    | kg m-2 s-1
 CHEM_SURFACEFLUX_HI            | Surface flux (E-D) f | xy    | kg m-2 s-1
 CHEM_SURFACEFLUX_HCOOH         | Surface flux (E-D) f | xy    | kg m-2 s-1
 CHEM_SURFACEFLUX_HCL           | Surface flux (E-D) f | xy    | kg m-2 s-1
 CHEM_SURFACEFLUX_HCFC22        | Surface flux (E-D) f | xy    | kg m-2 s-1
 CHEM_SURFACEFLUX_HCFC142B      | Surface flux (E-D) f | xy    | kg m-2 s-1
 CHEM_SURFACEFLUX_HCFC141B      | Surface flux (E-D) f | xy    | kg m-2 s-1
 CHEM_SURFACEFLUX_HCFC123       | Surface flux (E-D) f | xy    | kg m-2 s-1
 CHEM_SURFACEFLUX_HC5A          | Surface flux (E-D) f | xy    | kg m-2 s-1
 CHEM_SURFACEFLUX_HBR           | Surface flux (E-D) f | xy    | kg m-2 s-1
 CHEM_SURFACEFLUX_HAC           | Surface flux (E-D) f | xy    | kg m-2 s-1
 CHEM_SURFACEFLUX_H2O2          | Surface flux (E-D) f | xy    | kg m-2 s-1
 CHEM_SURFACEFLUX_H2O           | Surface flux (E-D) f | xy    | kg m-2 s-1
 CHEM_SURFACEFLUX_H2402         | Surface flux (E-D) f | xy    | kg m-2 s-1
 CHEM_SURFACEFLUX_H1301         | Surface flux (E-D) f | xy    | kg m-2 s-1
 CHEM_SURFACEFLUX_H1211         | Surface flux (E-D) f | xy    | kg m-2 s-1
 CHEM_SURFACEFLUX_GLYX          | Surface flux (E-D) f | xy    | kg m-2 s-1
 CHEM_SURFACEFLUX_GLYC          | Surface flux (E-D) f | xy    | kg m-2 s-1
 CHEM_SURFACEFLUX_ETP           | Surface flux (E-D) f | xy    | kg m-2 s-1
 CHEM_SURFACEFLUX_ETNO3         | Surface flux (E-D) f | xy    | kg m-2 s-1
 CHEM_SURFACEFLUX_ETHP          | Surface flux (E-D) f | xy    | kg m-2 s-1
 CHEM_SURFACEFLUX_ETHN          | Surface flux (E-D) f | xy    | kg m-2 s-1
 CHEM_SURFACEFLUX_ETHLN         | Surface flux (E-D) f | xy    | kg m-2 s-1
 CHEM_SURFACEFLUX_EOH           | Surface flux (E-D) f | xy    | kg m-2 s-1
 CHEM_SURFACEFLUX_DST4          | Surface flux (E-D) f | xy    | kg m-2 s-1
 CHEM_SURFACEFLUX_DST3          | Surface flux (E-D) f | xy    | kg m-2 s-1
 CHEM_SURFACEFLUX_DST2          | Surface flux (E-D) f | xy    | kg m-2 s-1
 CHEM_SURFACEFLUX_DST1          | Surface flux (E-D) f | xy    | kg m-2 s-1
 CHEM_SURFACEFLUX_DMS           | Surface flux (E-D) f | xy    | kg m-2 s-1
 CHEM_SURFACEFLUX_CSL           | Surface flux (E-D) f | xy    | kg m-2 s-1
 CHEM_SURFACEFLUX_CO            | Surface flux (E-D) f | xy    | kg m-2 s-1
 CHEM_SURFACEFLUX_CLOCK         | Surface flux (E-D) f | xy    | kg m-2 s-1
 CHEM_SURFACEFLUX_CLOO          | Surface flux (E-D) f | xy    | kg m-2 s-1
 CHEM_SURFACEFLUX_CLO           | Surface flux (E-D) f | xy    | kg m-2 s-1
 CHEM_SURFACEFLUX_CLNO3         | Surface flux (E-D) f | xy    | kg m-2 s-1
 CHEM_SURFACEFLUX_CLNO2         | Surface flux (E-D) f | xy    | kg m-2 s-1
 CHEM_SURFACEFLUX_CL2O2         | Surface flux (E-D) f | xy    | kg m-2 s-1
 CHEM_SURFACEFLUX_CL2           | Surface flux (E-D) f | xy    | kg m-2 s-1
 CHEM_SURFACEFLUX_CL            | Surface flux (E-D) f | xy    | kg m-2 s-1
 CHEM_SURFACEFLUX_CHCL3         | Surface flux (E-D) f | xy    | kg m-2 s-1
 CHEM_SURFACEFLUX_CHBR3         | Surface flux (E-D) f | xy    | kg m-2 s-1
 CHEM_SURFACEFLUX_CH4           | Surface flux (E-D) f | xy    | kg m-2 s-1
 CHEM_SURFACEFLUX_CH3I          | Surface flux (E-D) f | xy    | kg m-2 s-1
 CHEM_SURFACEFLUX_CH3CL         | Surface flux (E-D) f | xy    | kg m-2 s-1
 CHEM_SURFACEFLUX_CH3CCL3       | Surface flux (E-D) f | xy    | kg m-2 s-1
 CHEM_SURFACEFLUX_CH3BR         | Surface flux (E-D) f | xy    | kg m-2 s-1
 CHEM_SURFACEFLUX_CH2O          | Surface flux (E-D) f | xy    | kg m-2 s-1
 CHEM_SURFACEFLUX_CH2ICL        | Surface flux (E-D) f | xy    | kg m-2 s-1
 CHEM_SURFACEFLUX_CH2IBR        | Surface flux (E-D) f | xy    | kg m-2 s-1
 CHEM_SURFACEFLUX_CH2I2         | Surface flux (E-D) f | xy    | kg m-2 s-1
 CHEM_SURFACEFLUX_CH2CL2        | Surface flux (E-D) f | xy    | kg m-2 s-1
 CHEM_SURFACEFLUX_CH2BR2        | Surface flux (E-D) f | xy    | kg m-2 s-1
 CHEM_SURFACEFLUX_CFC12         | Surface flux (E-D) f | xy    | kg m-2 s-1
 CHEM_SURFACEFLUX_CFC115        | Surface flux (E-D) f | xy    | kg m-2 s-1
 CHEM_SURFACEFLUX_CFC114        | Surface flux (E-D) f | xy    | kg m-2 s-1
 CHEM_SURFACEFLUX_CFC113        | Surface flux (E-D) f | xy    | kg m-2 s-1
 CHEM_SURFACEFLUX_CFC11         | Surface flux (E-D) f | xy    | kg m-2 s-1
 CHEM_SURFACEFLUX_CCL4          | Surface flux (E-D) f | xy    | kg m-2 s-1
 CHEM_SURFACEFLUX_C3H8          | Surface flux (E-D) f | xy    | kg m-2 s-1
 CHEM_SURFACEFLUX_C2H6          | Surface flux (E-D) f | xy    | kg m-2 s-1
 CHEM_SURFACEFLUX_C2H4          | Surface flux (E-D) f | xy    | kg m-2 s-1
 CHEM_SURFACEFLUX_C2H2          | Surface flux (E-D) f | xy    | kg m-2 s-1
 CHEM_SURFACEFLUX_BZPAN         | Surface flux (E-D) f | xy    | kg m-2 s-1
 CHEM_SURFACEFLUX_BZCO3H        | Surface flux (E-D) f | xy    | kg m-2 s-1
 CHEM_SURFACEFLUX_BRSALC        | Surface flux (E-D) f | xy    | kg m-2 s-1
 CHEM_SURFACEFLUX_BRSALA        | Surface flux (E-D) f | xy    | kg m-2 s-1
 CHEM_SURFACEFLUX_BRO           | Surface flux (E-D) f | xy    | kg m-2 s-1
 CHEM_SURFACEFLUX_BRNO3         | Surface flux (E-D) f | xy    | kg m-2 s-1
 CHEM_SURFACEFLUX_BRNO2         | Surface flux (E-D) f | xy    | kg m-2 s-1
 CHEM_SURFACEFLUX_BRCL          | Surface flux (E-D) f | xy    | kg m-2 s-1
 CHEM_SURFACEFLUX_BR2           | Surface flux (E-D) f | xy    | kg m-2 s-1
 CHEM_SURFACEFLUX_BR            | Surface flux (E-D) f | xy    | kg m-2 s-1
 CHEM_SURFACEFLUX_BENZP         | Surface flux (E-D) f | xy    | kg m-2 s-1
 CHEM_SURFACEFLUX_BENZ          | Surface flux (E-D) f | xy    | kg m-2 s-1
 CHEM_SURFACEFLUX_BCPO          | Surface flux (E-D) f | xy    | kg m-2 s-1
 CHEM_SURFACEFLUX_BCPI          | Surface flux (E-D) f | xy    | kg m-2 s-1
 CHEM_SURFACEFLUX_BALD          | Surface flux (E-D) f | xy    | kg m-2 s-1
 CHEM_SURFACEFLUX_ATOOH         | Surface flux (E-D) f | xy    | kg m-2 s-1
 CHEM_SURFACEFLUX_AROMP5        | Surface flux (E-D) f | xy    | kg m-2 s-1
 CHEM_SURFACEFLUX_AROMP4        | Surface flux (E-D) f | xy    | kg m-2 s-1
 CHEM_SURFACEFLUX_AONITA        | Surface flux (E-D) f | xy    | kg m-2 s-1
 CHEM_SURFACEFLUX_ALK4          | Surface flux (E-D) f | xy    | kg m-2 s-1
 CHEM_SURFACEFLUX_ALD2          | Surface flux (E-D) f | xy    | kg m-2 s-1
 CHEM_SURFACEFLUX_AERI          | Surface flux (E-D) f | xy    | kg m-2 s-1
 CHEM_SURFACEFLUX_ACTA          | Surface flux (E-D) f | xy    | kg m-2 s-1
 CHEM_SURFACEFLUX_ACET          | Surface flux (E-D) f | xy    | kg m-2 s-1
 CHEM_JNO2                      | Surface J-values for | xy    | 1
 CHEM_JOH                       | Surface J-values for | xy    | 1
 CHEM_DRYDEPVEL_SOAS            | Dry deposition veloc | xy    | m s-1
 CHEM_DRYDEPVEL_SOAIE           | Dry deposition veloc | xy    | m s-1
 CHEM_DRYDEPVEL_SOAGX           | Dry deposition veloc | xy    | m s-1
 CHEM_DRYDEPVEL_SO4S            | Dry deposition veloc | xy    | m s-1
 CHEM_DRYDEPVEL_SO4             | Dry deposition veloc | xy    | m s-1
 CHEM_DRYDEPVEL_SO2             | Dry deposition veloc | xy    | m s-1
 CHEM_DRYDEPVEL_SALCCL          | Dry deposition veloc | xy    | m s-1
 CHEM_DRYDEPVEL_SALCAL          | Dry deposition veloc | xy    | m s-1
 CHEM_DRYDEPVEL_SALC            | Dry deposition veloc | xy    | m s-1
 CHEM_DRYDEPVEL_SALACL          | Dry deposition veloc | xy    | m s-1
 CHEM_DRYDEPVEL_SALAAL          | Dry deposition veloc | xy    | m s-1
 CHEM_DRYDEPVEL_SALA            | Dry deposition veloc | xy    | m s-1
 CHEM_DRYDEPVEL_RP              | Dry deposition veloc | xy    | m s-1
 CHEM_DRYDEPVEL_RIPD            | Dry deposition veloc | xy    | m s-1
 CHEM_DRYDEPVEL_RIPC            | Dry deposition veloc | xy    | m s-1
 CHEM_DRYDEPVEL_RIPB            | Dry deposition veloc | xy    | m s-1
 CHEM_DRYDEPVEL_RIPA            | Dry deposition veloc | xy    | m s-1
 CHEM_DRYDEPVEL_RB3P            | Dry deposition veloc | xy    | m s-1
 CHEM_DRYDEPVEL_RA3P            | Dry deposition veloc | xy    | m s-1
 CHEM_DRYDEPVEL_R4P             | Dry deposition veloc | xy    | m s-1
 CHEM_DRYDEPVEL_R4N2            | Dry deposition veloc | xy    | m s-1
 CHEM_DRYDEPVEL_PYAC            | Dry deposition veloc | xy    | m s-1
 CHEM_DRYDEPVEL_PRPN            | Dry deposition veloc | xy    | m s-1
 CHEM_DRYDEPVEL_PROPNN          | Dry deposition veloc | xy    | m s-1
 CHEM_DRYDEPVEL_PPN             | Dry deposition veloc | xy    | m s-1
 CHEM_DRYDEPVEL_PP              | Dry deposition veloc | xy    | m s-1
 CHEM_DRYDEPVEL_PHEN            | Dry deposition veloc | xy    | m s-1
 CHEM_DRYDEPVEL_PFE             | Dry deposition veloc | xy    | m s-1
 CHEM_DRYDEPVEL_PAN             | Dry deposition veloc | xy    | m s-1
 CHEM_DRYDEPVEL_OCPO            | Dry deposition veloc | xy    | m s-1
 CHEM_DRYDEPVEL_OCPI            | Dry deposition veloc | xy    | m s-1
 CHEM_DRYDEPVEL_O3              | Dry deposition veloc | xy    | m s-1
 CHEM_DRYDEPVEL_NPRNO3          | Dry deposition veloc | xy    | m s-1
 CHEM_DRYDEPVEL_NPHEN           | Dry deposition veloc | xy    | m s-1
 CHEM_DRYDEPVEL_NO2             | Dry deposition veloc | xy    | m s-1
 CHEM_DRYDEPVEL_NITS            | Dry deposition veloc | xy    | m s-1
 CHEM_DRYDEPVEL_NIT             | Dry deposition veloc | xy    | m s-1
 CHEM_DRYDEPVEL_NH4             | Dry deposition veloc | xy    | m s-1
 CHEM_DRYDEPVEL_NH3             | Dry deposition veloc | xy    | m s-1
 CHEM_DRYDEPVEL_N2O5            | Dry deposition veloc | xy    | m s-1
 CHEM_DRYDEPVEL_MVKPC           | Dry deposition veloc | xy    | m s-1
 CHEM_DRYDEPVEL_MVKN            | Dry deposition veloc | xy    | m s-1
 CHEM_DRYDEPVEL_MVKHP           | Dry deposition veloc | xy    | m s-1
 CHEM_DRYDEPVEL_MVKHCB          | Dry deposition veloc | xy    | m s-1
 CHEM_DRYDEPVEL_MVKHC           | Dry deposition veloc | xy    | m s-1
 CHEM_DRYDEPVEL_MVKDH           | Dry deposition veloc | xy    | m s-1
 CHEM_DRYDEPVEL_MVK             | Dry deposition veloc | xy    | m s-1
 CHEM_DRYDEPVEL_MTPO            | Dry deposition veloc | xy    | m s-1
 CHEM_DRYDEPVEL_MTPA            | Dry deposition veloc | xy    | m s-1
 CHEM_DRYDEPVEL_MSA             | Dry deposition veloc | xy    | m s-1
 CHEM_DRYDEPVEL_MPAN            | Dry deposition veloc | xy    | m s-1
 CHEM_DRYDEPVEL_MONITU          | Dry deposition veloc | xy    | m s-1
 CHEM_DRYDEPVEL_MONITS          | Dry deposition veloc | xy    | m s-1
 CHEM_DRYDEPVEL_MONITA          | Dry deposition veloc | xy    | m s-1
 CHEM_DRYDEPVEL_MOH             | Dry deposition veloc | xy    | m s-1
 CHEM_DRYDEPVEL_MGLY            | Dry deposition veloc | xy    | m s-1
 CHEM_DRYDEPVEL_MENO3           | Dry deposition veloc | xy    | m s-1
 CHEM_DRYDEPVEL_MCT             | Dry deposition veloc | xy    | m s-1
 CHEM_DRYDEPVEL_MCRHP           | Dry deposition veloc | xy    | m s-1
 CHEM_DRYDEPVEL_MCRHNB          | Dry deposition veloc | xy    | m s-1
 CHEM_DRYDEPVEL_MCRHN           | Dry deposition veloc | xy    | m s-1
 CHEM_DRYDEPVEL_MCRENOL         | Dry deposition veloc | xy    | m s-1
 CHEM_DRYDEPVEL_MCRDH           | Dry deposition veloc | xy    | m s-1
 CHEM_DRYDEPVEL_MAP             | Dry deposition veloc | xy    | m s-1
 CHEM_DRYDEPVEL_MACR1OOH        | Dry deposition veloc | xy    | m s-1
 CHEM_DRYDEPVEL_MACR            | Dry deposition veloc | xy    | m s-1
 CHEM_DRYDEPVEL_LVOCOA          | Dry deposition veloc | xy    | m s-1
 CHEM_DRYDEPVEL_LVOC            | Dry deposition veloc | xy    | m s-1
 CHEM_DRYDEPVEL_LIMO            | Dry deposition veloc | xy    | m s-1
 CHEM_DRYDEPVEL_ITHN            | Dry deposition veloc | xy    | m s-1
 CHEM_DRYDEPVEL_ITCN            | Dry deposition veloc | xy    | m s-1
 CHEM_DRYDEPVEL_ISALC           | Dry deposition veloc | xy    | m s-1
 CHEM_DRYDEPVEL_ISALA           | Dry deposition veloc | xy    | m s-1
 CHEM_DRYDEPVEL_IPRNO3          | Dry deposition veloc | xy    | m s-1
 CHEM_DRYDEPVEL_IONO2           | Dry deposition veloc | xy    | m s-1
 CHEM_DRYDEPVEL_IONO            | Dry deposition veloc | xy    | m s-1
 CHEM_DRYDEPVEL_IONITA          | Dry deposition veloc | xy    | m s-1
 CHEM_DRYDEPVEL_INPD            | Dry deposition veloc | xy    | m s-1
 CHEM_DRYDEPVEL_INPB            | Dry deposition veloc | xy    | m s-1
 CHEM_DRYDEPVEL_INDIOL          | Dry deposition veloc | xy    | m s-1
 CHEM_DRYDEPVEL_IHN4            | Dry deposition veloc | xy    | m s-1
 CHEM_DRYDEPVEL_IHN3            | Dry deposition veloc | xy    | m s-1
 CHEM_DRYDEPVEL_IHN2            | Dry deposition veloc | xy    | m s-1
 CHEM_DRYDEPVEL_IHN1            | Dry deposition veloc | xy    | m s-1
 CHEM_DRYDEPVEL_IEPOXD          | Dry deposition veloc | xy    | m s-1
 CHEM_DRYDEPVEL_IEPOXB          | Dry deposition veloc | xy    | m s-1
 CHEM_DRYDEPVEL_IEPOXA          | Dry deposition veloc | xy    | m s-1
 CHEM_DRYDEPVEL_IDN             | Dry deposition veloc | xy    | m s-1
 CHEM_DRYDEPVEL_IDHPE           | Dry deposition veloc | xy    | m s-1
 CHEM_DRYDEPVEL_IDHDP           | Dry deposition veloc | xy    | m s-1
 CHEM_DRYDEPVEL_IDCHP           | Dry deposition veloc | xy    | m s-1
 CHEM_DRYDEPVEL_IDC             | Dry deposition veloc | xy    | m s-1
 CHEM_DRYDEPVEL_ICPDH           | Dry deposition veloc | xy    | m s-1
 CHEM_DRYDEPVEL_ICN             | Dry deposition veloc | xy    | m s-1
 CHEM_DRYDEPVEL_ICL             | Dry deposition veloc | xy    | m s-1
 CHEM_DRYDEPVEL_ICHE            | Dry deposition veloc | xy    | m s-1
 CHEM_DRYDEPVEL_IBR             | Dry deposition veloc | xy    | m s-1
 CHEM_DRYDEPVEL_I2O4            | Dry deposition veloc | xy    | m s-1
 CHEM_DRYDEPVEL_I2O3            | Dry deposition veloc | xy    | m s-1
 CHEM_DRYDEPVEL_I2O2            | Dry deposition veloc | xy    | m s-1
 CHEM_DRYDEPVEL_I2              | Dry deposition veloc | xy    | m s-1
 CHEM_DRYDEPVEL_HPETHNL         | Dry deposition veloc | xy    | m s-1
 CHEM_DRYDEPVEL_HPALD4          | Dry deposition veloc | xy    | m s-1
 CHEM_DRYDEPVEL_HPALD3          | Dry deposition veloc | xy    | m s-1
 CHEM_DRYDEPVEL_HPALD2          | Dry deposition veloc | xy    | m s-1
 CHEM_DRYDEPVEL_HPALD1          | Dry deposition veloc | xy    | m s-1
 CHEM_DRYDEPVEL_HONIT           | Dry deposition veloc | xy    | m s-1
 CHEM_DRYDEPVEL_HOI             | Dry deposition veloc | xy    | m s-1
 CHEM_DRYDEPVEL_HOCL            | Dry deposition veloc | xy    | m s-1
 CHEM_DRYDEPVEL_HOBR            | Dry deposition veloc | xy    | m s-1
 CHEM_DRYDEPVEL_HNO3            | Dry deposition veloc | xy    | m s-1
 CHEM_DRYDEPVEL_HMS             | Dry deposition veloc | xy    | m s-1
 CHEM_DRYDEPVEL_HMML            | Dry deposition veloc | xy    | m s-1
 CHEM_DRYDEPVEL_HMHP            | Dry deposition veloc | xy    | m s-1
 CHEM_DRYDEPVEL_HI              | Dry deposition veloc | xy    | m s-1
 CHEM_DRYDEPVEL_HCOOH           | Dry deposition veloc | xy    | m s-1
 CHEM_DRYDEPVEL_HCL             | Dry deposition veloc | xy    | m s-1
 CHEM_DRYDEPVEL_HC5A            | Dry deposition veloc | xy    | m s-1
 CHEM_DRYDEPVEL_HBR             | Dry deposition veloc | xy    | m s-1
 CHEM_DRYDEPVEL_HAC             | Dry deposition veloc | xy    | m s-1
 CHEM_DRYDEPVEL_H2O2            | Dry deposition veloc | xy    | m s-1
 CHEM_DRYDEPVEL_GLYX            | Dry deposition veloc | xy    | m s-1
 CHEM_DRYDEPVEL_GLYC            | Dry deposition veloc | xy    | m s-1
 CHEM_DRYDEPVEL_ETP             | Dry deposition veloc | xy    | m s-1
 CHEM_DRYDEPVEL_ETNO3           | Dry deposition veloc | xy    | m s-1
 CHEM_DRYDEPVEL_ETHP            | Dry deposition veloc | xy    | m s-1
 CHEM_DRYDEPVEL_ETHN            | Dry deposition veloc | xy    | m s-1
 CHEM_DRYDEPVEL_ETHLN           | Dry deposition veloc | xy    | m s-1
 CHEM_DRYDEPVEL_EOH             | Dry deposition veloc | xy    | m s-1
 CHEM_DRYDEPVEL_DST4            | Dry deposition veloc | xy    | m s-1
 CHEM_DRYDEPVEL_DST3            | Dry deposition veloc | xy    | m s-1
 CHEM_DRYDEPVEL_DST2            | Dry deposition veloc | xy    | m s-1
 CHEM_DRYDEPVEL_DST1            | Dry deposition veloc | xy    | m s-1
 CHEM_DRYDEPVEL_CSL             | Dry deposition veloc | xy    | m s-1
 CHEM_DRYDEPVEL_CLOO            | Dry deposition veloc | xy    | m s-1
 CHEM_DRYDEPVEL_CLO             | Dry deposition veloc | xy    | m s-1
 CHEM_DRYDEPVEL_CLNO3           | Dry deposition veloc | xy    | m s-1
 CHEM_DRYDEPVEL_CLNO2           | Dry deposition veloc | xy    | m s-1
 CHEM_DRYDEPVEL_CL2             | Dry deposition veloc | xy    | m s-1
 CHEM_DRYDEPVEL_CH2O            | Dry deposition veloc | xy    | m s-1
 CHEM_DRYDEPVEL_BZPAN           | Dry deposition veloc | xy    | m s-1
 CHEM_DRYDEPVEL_BZCO3H          | Dry deposition veloc | xy    | m s-1
 CHEM_DRYDEPVEL_BRSALC          | Dry deposition veloc | xy    | m s-1
 CHEM_DRYDEPVEL_BRSALA          | Dry deposition veloc | xy    | m s-1
 CHEM_DRYDEPVEL_BRNO3           | Dry deposition veloc | xy    | m s-1
 CHEM_DRYDEPVEL_BRCL            | Dry deposition veloc | xy    | m s-1
 CHEM_DRYDEPVEL_BR2             | Dry deposition veloc | xy    | m s-1
 CHEM_DRYDEPVEL_BENZP           | Dry deposition veloc | xy    | m s-1
 CHEM_DRYDEPVEL_BCPO            | Dry deposition veloc | xy    | m s-1
 CHEM_DRYDEPVEL_BCPI            | Dry deposition veloc | xy    | m s-1
 CHEM_DRYDEPVEL_BALD            | Dry deposition veloc | xy    | m s-1
 CHEM_DRYDEPVEL_ATOOH           | Dry deposition veloc | xy    | m s-1
 CHEM_DRYDEPVEL_AROMP5          | Dry deposition veloc | xy    | m s-1
 CHEM_DRYDEPVEL_AROMP4          | Dry deposition veloc | xy    | m s-1
 CHEM_DRYDEPVEL_AONITA          | Dry deposition veloc | xy    | m s-1
 CHEM_DRYDEPVEL_ALD2            | Dry deposition veloc | xy    | m s-1
 CHEM_DRYDEPVEL_AERI            | Dry deposition veloc | xy    | m s-1
 CHEM_DRYDEPVEL_ACTA            | Dry deposition veloc | xy    | m s-1
 CHEM_DRYDEPVEL_ACET            | Dry deposition veloc | xy    | m s-1
 CHEM_DRYDEPFREQ_SOAS           | Dry deposition frequ | xy    | s-1
 CHEM_DRYDEPFREQ_SOAIE          | Dry deposition frequ | xy    | s-1
 CHEM_DRYDEPFREQ_SOAGX          | Dry deposition frequ | xy    | s-1
 CHEM_DRYDEPFREQ_SO4S           | Dry deposition frequ | xy    | s-1
 CHEM_DRYDEPFREQ_SO4            | Dry deposition frequ | xy    | s-1
 CHEM_DRYDEPFREQ_SO2            | Dry deposition frequ | xy    | s-1
 CHEM_DRYDEPFREQ_SALCCL         | Dry deposition frequ | xy    | s-1
 CHEM_DRYDEPFREQ_SALCAL         | Dry deposition frequ | xy    | s-1
 CHEM_DRYDEPFREQ_SALC           | Dry deposition frequ | xy    | s-1
 CHEM_DRYDEPFREQ_SALACL         | Dry deposition frequ | xy    | s-1
 CHEM_DRYDEPFREQ_SALAAL         | Dry deposition frequ | xy    | s-1
 CHEM_DRYDEPFREQ_SALA           | Dry deposition frequ | xy    | s-1
 CHEM_DRYDEPFREQ_RP             | Dry deposition frequ | xy    | s-1
 CHEM_DRYDEPFREQ_RIPD           | Dry deposition frequ | xy    | s-1
 CHEM_DRYDEPFREQ_RIPC           | Dry deposition frequ | xy    | s-1
 CHEM_DRYDEPFREQ_RIPB           | Dry deposition frequ | xy    | s-1
 CHEM_DRYDEPFREQ_RIPA           | Dry deposition frequ | xy    | s-1
 CHEM_DRYDEPFREQ_RB3P           | Dry deposition frequ | xy    | s-1
 CHEM_DRYDEPFREQ_RA3P           | Dry deposition frequ | xy    | s-1
 CHEM_DRYDEPFREQ_R4P            | Dry deposition frequ | xy    | s-1
 CHEM_DRYDEPFREQ_R4N2           | Dry deposition frequ | xy    | s-1
 CHEM_DRYDEPFREQ_PYAC           | Dry deposition frequ | xy    | s-1
 CHEM_DRYDEPFREQ_PRPN           | Dry deposition frequ | xy    | s-1
 CHEM_DRYDEPFREQ_PROPNN         | Dry deposition frequ | xy    | s-1
 CHEM_DRYDEPFREQ_PPN            | Dry deposition frequ | xy    | s-1
 CHEM_DRYDEPFREQ_PP             | Dry deposition frequ | xy    | s-1
 CHEM_DRYDEPFREQ_PHEN           | Dry deposition frequ | xy    | s-1
 CHEM_DRYDEPFREQ_PFE            | Dry deposition frequ | xy    | s-1
 CHEM_DRYDEPFREQ_PAN            | Dry deposition frequ | xy    | s-1
 CHEM_DRYDEPFREQ_OCPO           | Dry deposition frequ | xy    | s-1
 CHEM_DRYDEPFREQ_OCPI           | Dry deposition frequ | xy    | s-1
 CHEM_DRYDEPFREQ_O3             | Dry deposition frequ | xy    | s-1
 CHEM_DRYDEPFREQ_NPRNO3         | Dry deposition frequ | xy    | s-1
 CHEM_DRYDEPFREQ_NPHEN          | Dry deposition frequ | xy    | s-1
 CHEM_DRYDEPFREQ_NO2            | Dry deposition frequ | xy    | s-1
 CHEM_DRYDEPFREQ_NITS           | Dry deposition frequ | xy    | s-1
 CHEM_DRYDEPFREQ_NIT            | Dry deposition frequ | xy    | s-1
 CHEM_DRYDEPFREQ_NH4            | Dry deposition frequ | xy    | s-1
 CHEM_DRYDEPFREQ_NH3            | Dry deposition frequ | xy    | s-1
 CHEM_DRYDEPFREQ_N2O5           | Dry deposition frequ | xy    | s-1
 CHEM_DRYDEPFREQ_MVKPC          | Dry deposition frequ | xy    | s-1
 CHEM_DRYDEPFREQ_MVKN           | Dry deposition frequ | xy    | s-1
 CHEM_DRYDEPFREQ_MVKHP          | Dry deposition frequ | xy    | s-1
 CHEM_DRYDEPFREQ_MVKHCB         | Dry deposition frequ | xy    | s-1
 CHEM_DRYDEPFREQ_MVKHC          | Dry deposition frequ | xy    | s-1
 CHEM_DRYDEPFREQ_MVKDH          | Dry deposition frequ | xy    | s-1
 CHEM_DRYDEPFREQ_MVK            | Dry deposition frequ | xy    | s-1
 CHEM_DRYDEPFREQ_MTPO           | Dry deposition frequ | xy    | s-1
 CHEM_DRYDEPFREQ_MTPA           | Dry deposition frequ | xy    | s-1
 CHEM_DRYDEPFREQ_MSA            | Dry deposition frequ | xy    | s-1
 CHEM_DRYDEPFREQ_MPAN           | Dry deposition frequ | xy    | s-1
 CHEM_DRYDEPFREQ_MONITU         | Dry deposition frequ | xy    | s-1
 CHEM_DRYDEPFREQ_MONITS         | Dry deposition frequ | xy    | s-1
 CHEM_DRYDEPFREQ_MONITA         | Dry deposition frequ | xy    | s-1
 CHEM_DRYDEPFREQ_MOH            | Dry deposition frequ | xy    | s-1
 CHEM_DRYDEPFREQ_MGLY           | Dry deposition frequ | xy    | s-1
 CHEM_DRYDEPFREQ_MENO3          | Dry deposition frequ | xy    | s-1
 CHEM_DRYDEPFREQ_MCT            | Dry deposition frequ | xy    | s-1
 CHEM_DRYDEPFREQ_MCRHP          | Dry deposition frequ | xy    | s-1
 CHEM_DRYDEPFREQ_MCRHNB         | Dry deposition frequ | xy    | s-1
 CHEM_DRYDEPFREQ_MCRHN          | Dry deposition frequ | xy    | s-1
 CHEM_DRYDEPFREQ_MCRENOL        | Dry deposition frequ | xy    | s-1
 CHEM_DRYDEPFREQ_MCRDH          | Dry deposition frequ | xy    | s-1
 CHEM_DRYDEPFREQ_MAP            | Dry deposition frequ | xy    | s-1
 CHEM_DRYDEPFREQ_MACR1OOH       | Dry deposition frequ | xy    | s-1
 CHEM_DRYDEPFREQ_MACR           | Dry deposition frequ | xy    | s-1
 CHEM_DRYDEPFREQ_LVOCOA         | Dry deposition frequ | xy    | s-1
 CHEM_DRYDEPFREQ_LVOC           | Dry deposition frequ | xy    | s-1
 CHEM_DRYDEPFREQ_LIMO           | Dry deposition frequ | xy    | s-1
 CHEM_DRYDEPFREQ_ITHN           | Dry deposition frequ | xy    | s-1
 CHEM_DRYDEPFREQ_ITCN           | Dry deposition frequ | xy    | s-1
 CHEM_DRYDEPFREQ_ISALC          | Dry deposition frequ | xy    | s-1
 CHEM_DRYDEPFREQ_ISALA          | Dry deposition frequ | xy    | s-1
 CHEM_DRYDEPFREQ_IPRNO3         | Dry deposition frequ | xy    | s-1
 CHEM_DRYDEPFREQ_IONO2          | Dry deposition frequ | xy    | s-1
 CHEM_DRYDEPFREQ_IONO           | Dry deposition frequ | xy    | s-1
 CHEM_DRYDEPFREQ_IONITA         | Dry deposition frequ | xy    | s-1
 CHEM_DRYDEPFREQ_INPD           | Dry deposition frequ | xy    | s-1
 CHEM_DRYDEPFREQ_INPB           | Dry deposition frequ | xy    | s-1
 CHEM_DRYDEPFREQ_INDIOL         | Dry deposition frequ | xy    | s-1
 CHEM_DRYDEPFREQ_IHN4           | Dry deposition frequ | xy    | s-1
 CHEM_DRYDEPFREQ_IHN3           | Dry deposition frequ | xy    | s-1
 CHEM_DRYDEPFREQ_IHN2           | Dry deposition frequ | xy    | s-1
 CHEM_DRYDEPFREQ_IHN1           | Dry deposition frequ | xy    | s-1
 CHEM_DRYDEPFREQ_IEPOXD         | Dry deposition frequ | xy    | s-1
 CHEM_DRYDEPFREQ_IEPOXB         | Dry deposition frequ | xy    | s-1
 CHEM_DRYDEPFREQ_IEPOXA         | Dry deposition frequ | xy    | s-1
 CHEM_DRYDEPFREQ_IDN            | Dry deposition frequ | xy    | s-1
 CHEM_DRYDEPFREQ_IDHPE          | Dry deposition frequ | xy    | s-1
 CHEM_DRYDEPFREQ_IDHDP          | Dry deposition frequ | xy    | s-1
 CHEM_DRYDEPFREQ_IDCHP          | Dry deposition frequ | xy    | s-1
 CHEM_DRYDEPFREQ_IDC            | Dry deposition frequ | xy    | s-1
 CHEM_DRYDEPFREQ_ICPDH          | Dry deposition frequ | xy    | s-1
 CHEM_DRYDEPFREQ_ICN            | Dry deposition frequ | xy    | s-1
 CHEM_DRYDEPFREQ_ICL            | Dry deposition frequ | xy    | s-1
 CHEM_DRYDEPFREQ_ICHE           | Dry deposition frequ | xy    | s-1
 CHEM_DRYDEPFREQ_IBR            | Dry deposition frequ | xy    | s-1
 CHEM_DRYDEPFREQ_I2O4           | Dry deposition frequ | xy    | s-1
 CHEM_DRYDEPFREQ_I2O3           | Dry deposition frequ | xy    | s-1
 CHEM_DRYDEPFREQ_I2O2           | Dry deposition frequ | xy    | s-1
 CHEM_DRYDEPFREQ_I2             | Dry deposition frequ | xy    | s-1
 CHEM_DRYDEPFREQ_HPETHNL        | Dry deposition frequ | xy    | s-1
 CHEM_DRYDEPFREQ_HPALD4         | Dry deposition frequ | xy    | s-1
 CHEM_DRYDEPFREQ_HPALD3         | Dry deposition frequ | xy    | s-1
 CHEM_DRYDEPFREQ_HPALD2         | Dry deposition frequ | xy    | s-1
 CHEM_DRYDEPFREQ_HPALD1         | Dry deposition frequ | xy    | s-1
 CHEM_DRYDEPFREQ_HONIT          | Dry deposition frequ | xy    | s-1
 CHEM_DRYDEPFREQ_HOI            | Dry deposition frequ | xy    | s-1
 CHEM_DRYDEPFREQ_HOCL           | Dry deposition frequ | xy    | s-1
 CHEM_DRYDEPFREQ_HOBR           | Dry deposition frequ | xy    | s-1
 CHEM_DRYDEPFREQ_HNO3           | Dry deposition frequ | xy    | s-1
 CHEM_DRYDEPFREQ_HMS            | Dry deposition frequ | xy    | s-1
 CHEM_DRYDEPFREQ_HMML           | Dry deposition frequ | xy    | s-1
 CHEM_DRYDEPFREQ_HMHP           | Dry deposition frequ | xy    | s-1
 CHEM_DRYDEPFREQ_HI             | Dry deposition frequ | xy    | s-1
 CHEM_DRYDEPFREQ_HCOOH          | Dry deposition frequ | xy    | s-1
 CHEM_DRYDEPFREQ_HCL            | Dry deposition frequ | xy    | s-1
 CHEM_DRYDEPFREQ_HC5A           | Dry deposition frequ | xy    | s-1
 CHEM_DRYDEPFREQ_HBR            | Dry deposition frequ | xy    | s-1
 CHEM_DRYDEPFREQ_HAC            | Dry deposition frequ | xy    | s-1
 CHEM_DRYDEPFREQ_H2O2           | Dry deposition frequ | xy    | s-1
 CHEM_DRYDEPFREQ_GLYX           | Dry deposition frequ | xy    | s-1
 CHEM_DRYDEPFREQ_GLYC           | Dry deposition frequ | xy    | s-1
 CHEM_DRYDEPFREQ_ETP            | Dry deposition frequ | xy    | s-1
 CHEM_DRYDEPFREQ_ETNO3          | Dry deposition frequ | xy    | s-1
 CHEM_DRYDEPFREQ_ETHP           | Dry deposition frequ | xy    | s-1
 CHEM_DRYDEPFREQ_ETHN           | Dry deposition frequ | xy    | s-1
 CHEM_DRYDEPFREQ_ETHLN          | Dry deposition frequ | xy    | s-1
 CHEM_DRYDEPFREQ_EOH            | Dry deposition frequ | xy    | s-1
 CHEM_DRYDEPFREQ_DST4           | Dry deposition frequ | xy    | s-1
 CHEM_DRYDEPFREQ_DST3           | Dry deposition frequ | xy    | s-1
 CHEM_DRYDEPFREQ_DST2           | Dry deposition frequ | xy    | s-1
 CHEM_DRYDEPFREQ_DST1           | Dry deposition frequ | xy    | s-1
 CHEM_DRYDEPFREQ_CSL            | Dry deposition frequ | xy    | s-1
 CHEM_DRYDEPFREQ_CLOO           | Dry deposition frequ | xy    | s-1
 CHEM_DRYDEPFREQ_CLO            | Dry deposition frequ | xy    | s-1
 CHEM_DRYDEPFREQ_CLNO3          | Dry deposition frequ | xy    | s-1
 CHEM_DRYDEPFREQ_CLNO2          | Dry deposition frequ | xy    | s-1
 CHEM_DRYDEPFREQ_CL2            | Dry deposition frequ | xy    | s-1
 CHEM_DRYDEPFREQ_CH2O           | Dry deposition frequ | xy    | s-1
 CHEM_DRYDEPFREQ_BZPAN          | Dry deposition frequ | xy    | s-1
 CHEM_DRYDEPFREQ_BZCO3H         | Dry deposition frequ | xy    | s-1
 CHEM_DRYDEPFREQ_BRSALC         | Dry deposition frequ | xy    | s-1
 CHEM_DRYDEPFREQ_BRSALA         | Dry deposition frequ | xy    | s-1
 CHEM_DRYDEPFREQ_BRNO3          | Dry deposition frequ | xy    | s-1
 CHEM_DRYDEPFREQ_BRCL           | Dry deposition frequ | xy    | s-1
 CHEM_DRYDEPFREQ_BR2            | Dry deposition frequ | xy    | s-1
 CHEM_DRYDEPFREQ_BENZP          | Dry deposition frequ | xy    | s-1
 CHEM_DRYDEPFREQ_BCPO           | Dry deposition frequ | xy    | s-1
 CHEM_DRYDEPFREQ_BCPI           | Dry deposition frequ | xy    | s-1
 CHEM_DRYDEPFREQ_BALD           | Dry deposition frequ | xy    | s-1
 CHEM_DRYDEPFREQ_ATOOH          | Dry deposition frequ | xy    | s-1
 CHEM_DRYDEPFREQ_AROMP5         | Dry deposition frequ | xy    | s-1
 CHEM_DRYDEPFREQ_AROMP4         | Dry deposition frequ | xy    | s-1
 CHEM_DRYDEPFREQ_AONITA         | Dry deposition frequ | xy    | s-1
 CHEM_DRYDEPFREQ_ALD2           | Dry deposition frequ | xy    | s-1
 CHEM_DRYDEPFREQ_AERI           | Dry deposition frequ | xy    | s-1
 CHEM_DRYDEPFREQ_ACTA           | Dry deposition frequ | xy    | s-1
 CHEM_DRYDEPFREQ_ACET           | Dry deposition frequ | xy    | s-1
 CHEM_SALINITY                  | Salinity             | xy    | PSU
 CHEM_IODIDE                    | Surface iodide conce | xy    | nM
 CHEM_PHCLOUD                   | Cloud pH             | xyz C | 1
 CHEM_SO2AFTERCHEM              | SO2 after sulfate ch | xyz C | mol mol-1
 CHEM_H2O2AFTERCHEM             | H2O2 after sulfate c | xyz C | mol mol-1
 CHEM_KHETISLAHOBRHBR           | Sticking coefficient | xyz C | 1
 CHEM_KHETISLAHOBRHCL           | Sticking coefficient | xyz C | 1
 CHEM_KHETISLAHOCLHBR           | Sticking coefficient | xyz C | 1
 CHEM_KHETISLAHOCLHCL           | Sticking coefficient | xyz C | 1
 CHEM_KHETISLABRNO3HCL          | Sticking coefficient | xyz C | 1
 CHEM_KHETISLABRNO3H2O          | Sticking coefficient | xyz C | 1
 CHEM_KHETISLACLNO3HBR          | Sticking coefficient | xyz C | 1
 CHEM_KHETISLACLNO3HCL          | Sticking coefficient | xyz C | 1
 CHEM_KHETISLACLNO3H2O          | Sticking coefficient | xyz C | 1
 CHEM_KHETISLAN2O5HCL           | Sticking coefficient | xyz C | 1
 CHEM_KHETISLAN2O5H2O           | Sticking coefficient | xyz C | 1
 CHEM_STATEPSC                  | Polar stratospheric  | xyz C | count
 CHEM_KPPHVALUE                 | H-value for Rosenbro | xyz C | 1
 CHEM_WETDEPNITROGEN            | Wet deposited nitrog | xy    | molec cm-2 s-1
 CHEM_DRYDEPNITROGEN            | Dry deposited nitrog | xy    | molec cm-2 s-1
 CHEM_FUPDATEHOCL               | Correction factor fo | xyz C | 1
 CHEM_FUPDATEHOBR               | Correction factor fo | xyz C | 1
 CHEM_SO3AQ                     | Cloud sulfite concen | xyz C | mol L-1
 CHEM_HSO3AQ                    | Cloud bisulfite conc | xyz C | mol L-1
 CHEM_SSALKCOARSEMODE           | Sea salt alkalinity, | xyz C | 1
 CHEM_SSALKACCUMMODE            | Sea salt alkalinity, | xyz C | 1
 CHEM_ISCLOUD                   | Cloud presence       | xyz C | 1
 CHEM_ORVCSESQ                  | Sesquiterpenes mass  | xyz C | kg
 CHEM_QLXPHCLOUD                | Cloud pH * Met_QL    | xyz C | 1
 CHEM_ISORROPBISULFATE          | ISORROPIA Bisulfate  | xyz C | mol L-1
 CHEM_ISORROPCHLORIDECOARSE     | ISORROPIA chloride c | xyz C | mol/L
 CHEM_ISORROPCHLORIDEACCUM      | ISORROPIA chloride c | xyz C | mol/L
 CHEM_ISORROPNITRATECOARSE      | ISORROPIA nitrate co | xyz C | mol L-1
 CHEM_ISORROPNITRATEACCUM       | ISORROPIA nitrate co | xyz C | mol L-1
 CHEM_ISORROPSULFATE            | ISORROPIA sulfate co | xyz C | mol L-1
 CHEM_ISORROPAEROH2OCOARSE      | ISORROPIA aerosol wa | xyz C | ug m-3
 CHEM_ISORROPAEROH2OACCUM       | ISORROPIA aerosol wa | xyz C | ug m-3
 CHEM_ISORROPHPLUSCOARSE        | ISORROPIA H+ concent | xyz C | mol L-1
 CHEM_ISORROPHPLUSACCUM         | ISORROPIA H+ concent | xyz C | mol L-1
 CHEM_ISORROPAEROPHCOARSE       | ISORROPIA aerosol pH | xyz C | 1
 CHEM_ISORROPAEROPHACCUM        | ISORROPIA aerosol pH | xyz C | 1
 CHEM_OMOCOPOA                  | OM:OC ratio for OPOA | xy    | 1
 CHEM_OMOCPOA                   | OM:OC ratio for POA  | xy    | 1
 CHEM_OMOC                      | OM:OC ratio as read  | xy    | 1
 CHEM_YIELDCLNO2FINE            | Production yield coe | xyz C | l
 CHEM_GAMMAN2O5FINE             | Sticking coefficient | xyz C | l
 CHEM_GAMMAN2O5OVERALL          | Sticking coefficient | xyz C | l
 CHEM_ACLRADI                   | Dry aerosol radius f | xyz C | cm
 CHEM_ACLAREA                   | Dry aerosol area for | xyz C | cm2 cm-3
 CHEM_SOILDUST7                 | Dust aerosol concent | xyz C | kg/m3
 CHEM_SOILDUST6                 | Dust aerosol concent | xyz C | kg/m3
 CHEM_SOILDUST5                 | Dust aerosol concent | xyz C | kg/m3
 CHEM_SOILDUST4                 | Dust aerosol concent | xyz C | kg/m3
 CHEM_SOILDUST3                 | Dust aerosol concent | xyz C | kg/m3
 CHEM_SOILDUST2                 | Dust aerosol concent | xyz C | kg/m3
 CHEM_SOILDUST1                 | Dust aerosol concent | xyz C | kg/m3
 CHEM_AEROH2OICEI               | Aerosol H2O content  | xyz C | cm3(H2O) cm-3(air)
 CHEM_AEROH2OBGSULF             | Aerosol H2O content  | xyz C | cm3(H2O) cm-3(air)
 CHEM_AEROH2OSSC                | Aerosol H2O content  | xyz C | cm3(H2O) cm-3(air)
 CHEM_AEROH2OSSA                | Aerosol H2O content  | xyz C | cm3(H2O) cm-3(air)
 CHEM_AEROH2OOC                 | Aerosol H2O content  | xyz C | cm3(H2O) cm-3(air)
 CHEM_AEROH2OBC                 | Aerosol H2O content  | xyz C | cm3(H2O) cm-3(air)
 CHEM_AEROH2OSNA                | Sulfur-nitrogen-ammo | xyz C | cm3(H2O) cm-3(air)
 CHEM_AEROH2OMDUST7             | Aerosol H2O content  | xyz C | cm3(H2O) cm-3(air)
 CHEM_AEROH2OMDUST6             | Aerosol H2O content  | xyz C | cm3(H2O) cm-3(air)
 CHEM_AEROH2OMDUST5             | Aerosol H2O content  | xyz C | cm3(H2O) cm-3(air)
 CHEM_AEROH2OMDUST4             | Aerosol H2O content  | xyz C | cm3(H2O) cm-3(air)
 CHEM_AEROH2OMDUST3             | Aerosol H2O content  | xyz C | cm3(H2O) cm-3(air)
 CHEM_AEROH2OMDUST2             | Aerosol H2O content  | xyz C | cm3(H2O) cm-3(air)
 CHEM_AEROH2OMDUST1             | Aerosol H2O content  | xyz C | cm3(H2O) cm-3(air)
 CHEM_WETAERORADIICEI           | Wet aerosol radius f | xyz C | cm
 CHEM_WETAERORADIBGSULF         | Wet aerosol radius f | xyz C | cm
 CHEM_WETAERORADISSC            | Wet aerosol radius f | xyz C | cm
 CHEM_WETAERORADISSA            | Wet aerosol radius f | xyz C | cm
 CHEM_WETAERORADIOC             | Wet aerosol radius f | xyz C | cm
 CHEM_WETAERORADIBC             | Wet aerosol radius f | xyz C | cm
 CHEM_WETAERORADISULF           | Wet aerosol radius f | xyz C | cm
 CHEM_WETAERORADIMDUST7         | Wet aerosol radius f | xyz C | cm
 CHEM_WETAERORADIMDUST6         | Wet aerosol radius f | xyz C | cm
 CHEM_WETAERORADIMDUST5         | Wet aerosol radius f | xyz C | cm
 CHEM_WETAERORADIMDUST4         | Wet aerosol radius f | xyz C | cm
 CHEM_WETAERORADIMDUST3         | Wet aerosol radius f | xyz C | cm
 CHEM_WETAERORADIMDUST2         | Wet aerosol radius f | xyz C | cm
 CHEM_WETAERORADIMDUST1         | Wet aerosol radius f | xyz C | cm
 CHEM_WETAEROAREAICEI           | Wet aerosol area for | xyz C | cm2 cm-3
 CHEM_WETAEROAREABGSULF         | Wet aerosol area for | xyz C | cm2 cm-3
 CHEM_WETAEROAREASSC            | Wet aerosol area for | xyz C | cm2 cm-3
 CHEM_WETAEROAREASSA            | Wet aerosol area for | xyz C | cm2 cm-3
 CHEM_WETAEROAREAOC             | Wet aerosol area for | xyz C | cm2 cm-3
 CHEM_WETAEROAREABC             | Wet aerosol area for | xyz C | cm2 cm-3
 CHEM_WETAEROAREASULF           | Wet aerosol area for | xyz C | cm2 cm-3
 CHEM_WETAEROAREAMDUST7         | Wet aerosol area for | xyz C | cm2 cm-3
 CHEM_WETAEROAREAMDUST6         | Wet aerosol area for | xyz C | cm2 cm-3
 CHEM_WETAEROAREAMDUST5         | Wet aerosol area for | xyz C | cm2 cm-3
 CHEM_WETAEROAREAMDUST4         | Wet aerosol area for | xyz C | cm2 cm-3
 CHEM_WETAEROAREAMDUST3         | Wet aerosol area for | xyz C | cm2 cm-3
 CHEM_WETAEROAREAMDUST2         | Wet aerosol area for | xyz C | cm2 cm-3
 CHEM_WETAEROAREAMDUST1         | Wet aerosol area for | xyz C | cm2 cm-3
 CHEM_AERORADIICEI              | Dry aerosol radius f | xyz C | cm
 CHEM_AERORADIBGSULF            | Dry aerosol radius f | xyz C | cm
 CHEM_AERORADISSC               | Dry aerosol radius f | xyz C | cm
 CHEM_AERORADISSA               | Dry aerosol radius f | xyz C | cm
 CHEM_AERORADIOC                | Dry aerosol radius f | xyz C | cm
 CHEM_AERORADIBC                | Dry aerosol radius f | xyz C | cm
 CHEM_AERORADISULF              | Dry aerosol radius f | xyz C | cm
 CHEM_AERORADIMDUST7            | Dry aerosol radius f | xyz C | cm
 CHEM_AERORADIMDUST6            | Dry aerosol radius f | xyz C | cm
 CHEM_AERORADIMDUST5            | Dry aerosol radius f | xyz C | cm
 CHEM_AERORADIMDUST4            | Dry aerosol radius f | xyz C | cm
 CHEM_AERORADIMDUST3            | Dry aerosol radius f | xyz C | cm
 CHEM_AERORADIMDUST2            | Dry aerosol radius f | xyz C | cm
 CHEM_AERORADIMDUST1            | Dry aerosol radius f | xyz C | cm
 CHEM_AEROAREAICEI              | Dry aerosol area for | xyz C | cm2 cm-3
 CHEM_AEROAREABGSULF            | Dry aerosol area for | xyz C | cm2 cm-3
 CHEM_AEROAREASSC               | Dry aerosol area for | xyz C | cm2 cm-3
 CHEM_AEROAREASSA               | Dry aerosol area for | xyz C | cm2 cm-3
 CHEM_AEROAREAOC                | Dry aerosol area for | xyz C | cm2 cm-3
 CHEM_AEROAREABC                | Dry aerosol area for | xyz C | cm2 cm-3
 CHEM_AEROAREASULF              | Dry aerosol area for | xyz C | cm2 cm-3
 CHEM_AEROAREAMDUST7            | Dry aerosol area for | xyz C | cm2 cm-3
 CHEM_AEROAREAMDUST6            | Dry aerosol area for | xyz C | cm2 cm-3
 CHEM_AEROAREAMDUST5            | Dry aerosol area for | xyz C | cm2 cm-3
 CHEM_AEROAREAMDUST4            | Dry aerosol area for | xyz C | cm2 cm-3
 CHEM_AEROAREAMDUST3            | Dry aerosol area for | xyz C | cm2 cm-3
 CHEM_AEROAREAMDUST2            | Dry aerosol area for | xyz C | cm2 cm-3
 CHEM_AEROAREAMDUST1            | Dry aerosol area for | xyz C | cm2 cm-3
 ###############################################################################

Allocating the following fields of the State_Diag object:
===============================================================================
 State_Diag%AODDust               is registered as: AODDust
 State_Diag%AODDust550nm          is registered as: AODDust550nm
 State_Diag%AODHyg550nm           is registered as: AODHyg550nm
 State_Diag%AODSOAfromAqIsoprene5 is registered as: AODSOAfromAqIsoprene550nm
 State_Diag%AODStratLiquidAer550n is registered as: AODStratLiquidAer550nm
 State_Diag%AODPolarStratCloud550 is registered as: AODPolarStratCloud550nm

Registered variables contained within the State_Diag object:
===============================================================================
 AODPOLARSTRATCLOUD550NM        | Polar stratospheric  | xyz C | 1
 AODSTRATLIQUIDAER550NM         | Stratospheric liquid | xyz C | 1
 AODSOAFROMAQISOPRENE550NM      | Optical depth for SO | xyz C | 1
 AODHYG550NM_SO4                | Optical depth for hy | xyz C | 1
 AODHYG550NM_SALC               | Optical depth for hy | xyz C | 1
 AODHYG550NM_SALA               | Optical depth for hy | xyz C | 1
 AODHYG550NM_OCPI               | Optical depth for hy | xyz C | 1
 AODHYG550NM_BCPI               | Optical depth for hy | xyz C | 1
 AODDUST550NM_BIN7              | Optical depth for du | xyz C | 1
 AODDUST550NM_BIN6              | Optical depth for du | xyz C | 1
 AODDUST550NM_BIN5              | Optical depth for du | xyz C | 1
 AODDUST550NM_BIN4              | Optical depth for du | xyz C | 1
 AODDUST550NM_BIN3              | Optical depth for du | xyz C | 1
 AODDUST550NM_BIN2              | Optical depth for du | xyz C | 1
 AODDUST550NM_BIN1              | Optical depth for du | xyz C | 1
 AODDUST                        | Optical depth for mi | xyz C | 1

Registered variables contained within the State_Met object:
===============================================================================
 MET_LOCALSOLARTIME             | Local solar time     | xy    | hours
 MET_XLAINATIVE72               | Average LAI per Olso | xy    | m2 m-2
 MET_XLAINATIVE71               | Average LAI per Olso | xy    | m2 m-2
 MET_XLAINATIVE70               | Average LAI per Olso | xy    | m2 m-2
 MET_XLAINATIVE69               | Average LAI per Olso | xy    | m2 m-2
 MET_XLAINATIVE68               | Average LAI per Olso | xy    | m2 m-2
 MET_XLAINATIVE67               | Average LAI per Olso | xy    | m2 m-2
 MET_XLAINATIVE66               | Average LAI per Olso | xy    | m2 m-2
 MET_XLAINATIVE65               | Average LAI per Olso | xy    | m2 m-2
 MET_XLAINATIVE64               | Average LAI per Olso | xy    | m2 m-2
 MET_XLAINATIVE63               | Average LAI per Olso | xy    | m2 m-2
 MET_XLAINATIVE62               | Average LAI per Olso | xy    | m2 m-2
 MET_XLAINATIVE61               | Average LAI per Olso | xy    | m2 m-2
 MET_XLAINATIVE60               | Average LAI per Olso | xy    | m2 m-2
 MET_XLAINATIVE59               | Average LAI per Olso | xy    | m2 m-2
 MET_XLAINATIVE58               | Average LAI per Olso | xy    | m2 m-2
 MET_XLAINATIVE57               | Average LAI per Olso | xy    | m2 m-2
 MET_XLAINATIVE56               | Average LAI per Olso | xy    | m2 m-2
 MET_XLAINATIVE55               | Average LAI per Olso | xy    | m2 m-2
 MET_XLAINATIVE54               | Average LAI per Olso | xy    | m2 m-2
 MET_XLAINATIVE53               | Average LAI per Olso | xy    | m2 m-2
 MET_XLAINATIVE52               | Average LAI per Olso | xy    | m2 m-2
 MET_XLAINATIVE51               | Average LAI per Olso | xy    | m2 m-2
 MET_XLAINATIVE50               | Average LAI per Olso | xy    | m2 m-2
 MET_XLAINATIVE49               | Average LAI per Olso | xy    | m2 m-2
 MET_XLAINATIVE48               | Average LAI per Olso | xy    | m2 m-2
 MET_XLAINATIVE47               | Average LAI per Olso | xy    | m2 m-2
 MET_XLAINATIVE46               | Average LAI per Olso | xy    | m2 m-2
 MET_XLAINATIVE45               | Average LAI per Olso | xy    | m2 m-2
 MET_XLAINATIVE44               | Average LAI per Olso | xy    | m2 m-2
 MET_XLAINATIVE43               | Average LAI per Olso | xy    | m2 m-2
 MET_XLAINATIVE42               | Average LAI per Olso | xy    | m2 m-2
 MET_XLAINATIVE41               | Average LAI per Olso | xy    | m2 m-2
 MET_XLAINATIVE40               | Average LAI per Olso | xy    | m2 m-2
 MET_XLAINATIVE39               | Average LAI per Olso | xy    | m2 m-2
 MET_XLAINATIVE38               | Average LAI per Olso | xy    | m2 m-2
 MET_XLAINATIVE37               | Average LAI per Olso | xy    | m2 m-2
 MET_XLAINATIVE36               | Average LAI per Olso | xy    | m2 m-2
 MET_XLAINATIVE35               | Average LAI per Olso | xy    | m2 m-2
 MET_XLAINATIVE34               | Average LAI per Olso | xy    | m2 m-2
 MET_XLAINATIVE33               | Average LAI per Olso | xy    | m2 m-2
 MET_XLAINATIVE32               | Average LAI per Olso | xy    | m2 m-2
 MET_XLAINATIVE31               | Average LAI per Olso | xy    | m2 m-2
 MET_XLAINATIVE30               | Average LAI per Olso | xy    | m2 m-2
 MET_XLAINATIVE29               | Average LAI per Olso | xy    | m2 m-2
 MET_XLAINATIVE28               | Average LAI per Olso | xy    | m2 m-2
 MET_XLAINATIVE27               | Average LAI per Olso | xy    | m2 m-2
 MET_XLAINATIVE26               | Average LAI per Olso | xy    | m2 m-2
 MET_XLAINATIVE25               | Average LAI per Olso | xy    | m2 m-2
 MET_XLAINATIVE24               | Average LAI per Olso | xy    | m2 m-2
 MET_XLAINATIVE23               | Average LAI per Olso | xy    | m2 m-2
 MET_XLAINATIVE22               | Average LAI per Olso | xy    | m2 m-2
 MET_XLAINATIVE21               | Average LAI per Olso | xy    | m2 m-2
 MET_XLAINATIVE20               | Average LAI per Olso | xy    | m2 m-2
 MET_XLAINATIVE19               | Average LAI per Olso | xy    | m2 m-2
 MET_XLAINATIVE18               | Average LAI per Olso | xy    | m2 m-2
 MET_XLAINATIVE17               | Average LAI per Olso | xy    | m2 m-2
 MET_XLAINATIVE16               | Average LAI per Olso | xy    | m2 m-2
 MET_XLAINATIVE15               | Average LAI per Olso | xy    | m2 m-2
 MET_XLAINATIVE14               | Average LAI per Olso | xy    | m2 m-2
 MET_XLAINATIVE13               | Average LAI per Olso | xy    | m2 m-2
 MET_XLAINATIVE12               | Average LAI per Olso | xy    | m2 m-2
 MET_XLAINATIVE11               | Average LAI per Olso | xy    | m2 m-2
 MET_XLAINATIVE10               | Average LAI per Olso | xy    | m2 m-2
 MET_XLAINATIVE09               | Average LAI per Olso | xy    | m2 m-2
 MET_XLAINATIVE08               | Average LAI per Olso | xy    | m2 m-2
 MET_XLAINATIVE07               | Average LAI per Olso | xy    | m2 m-2
 MET_XLAINATIVE06               | Average LAI per Olso | xy    | m2 m-2
 MET_XLAINATIVE05               | Average LAI per Olso | xy    | m2 m-2
 MET_XLAINATIVE04               | Average LAI per Olso | xy    | m2 m-2
 MET_XLAINATIVE03               | Average LAI per Olso | xy    | m2 m-2
 MET_XLAINATIVE02               | Average LAI per Olso | xy    | m2 m-2
 MET_XLAINATIVE01               | Average LAI per Olso | xy    | m2 m-2
 MET_XLAINATIVE00               | Average LAI per Olso | xy    | m2 m-2
 MET_XLAI272                    | MODIS LAI for each O | xy    | m2 m-2
 MET_XLAI271                    | MODIS LAI for each O | xy    | m2 m-2
 MET_XLAI270                    | MODIS LAI for each O | xy    | m2 m-2
 MET_XLAI269                    | MODIS LAI for each O | xy    | m2 m-2
 MET_XLAI268                    | MODIS LAI for each O | xy    | m2 m-2
 MET_XLAI267                    | MODIS LAI for each O | xy    | m2 m-2
 MET_XLAI266                    | MODIS LAI for each O | xy    | m2 m-2
 MET_XLAI265                    | MODIS LAI for each O | xy    | m2 m-2
 MET_XLAI264                    | MODIS LAI for each O | xy    | m2 m-2
 MET_XLAI263                    | MODIS LAI for each O | xy    | m2 m-2
 MET_XLAI262                    | MODIS LAI for each O | xy    | m2 m-2
 MET_XLAI261                    | MODIS LAI for each O | xy    | m2 m-2
 MET_XLAI260                    | MODIS LAI for each O | xy    | m2 m-2
 MET_XLAI259                    | MODIS LAI for each O | xy    | m2 m-2
[...]
     - Found all A1     met fields for 2023/01/01 16:30
     - DO_LINEAR_CHEM: Linearized chemistry at 2023/01/01 16:00
     - LINOZ_CHEM3: Doing LINOZ
---> DATE: 2023/01/01  UTC: 16:10  X-HRS:     16.166666
---> DATE: 2023/01/01  UTC: 16:20  X-HRS:     16.333334
     - DO_LINEAR_CHEM: Linearized chemistry at 2023/01/01 16:20
     - LINOZ_CHEM3: Doing LINOZ
---> DATE: 2023/01/01  UTC: 16:30  X-HRS:     16.500000
---> DATE: 2023/01/01  UTC: 16:40  X-HRS:     16.666666
     - DO_LINEAR_CHEM: Linearized chemistry at 2023/01/01 16:40
     - LINOZ_CHEM3: Doing LINOZ
---> DATE: 2023/01/01  UTC: 16:50  X-HRS:     16.833334
---> DATE: 2023/01/01  UTC: 17:00  X-HRS:     17.000000
HEMCO: Opening /public/home/wangyuexuanzi/3.DATA/GEOS-Chem/ExtData/HEMCO/OFFLINE_LIGHTNING/v2023-03/GEOSFP/2022/FLASH_CTH_GEOSFP_0.25x0.3125_2022_01.nc4
HEMCO WARNING: Data is treated as unitless, but file attribute suggests it is not: km-2 s-1. File: /public/home/wangyuexuanzi/3.DATA/GEOS-Chem/ExtData/HEMCO/OFFLINE_LIGHTNING/v2023-03/GEOSFP/2022/FLASH_CTH_GEOSFP_0.25x0.3125_2022_01.nc4
--> LOCATION: HCOIO_READ (HCOIO_READ_STD_MOD.F90)
     - Found all A1     met fields for 2023/01/01 17:30
     - DO_LINEAR_CHEM: Linearized chemistry at 2023/01/01 17:00
     - LINOZ_CHEM3: Doing LINOZ
---> DATE: 2023/01/01  UTC: 17:10  X-HRS:     17.166666
---> DATE: 2023/01/01  UTC: 17:20  X-HRS:     17.333334
     - DO_LINEAR_CHEM: Linearized chemistry at 2023/01/01 17:20
     - LINOZ_CHEM3: Doing LINOZ
---> DATE: 2023/01/01  UTC: 17:30  X-HRS:     17.500000
---> DATE: 2023/01/01  UTC: 17:40  X-HRS:     17.666666
     - DO_LINEAR_CHEM: Linearized chemistry at 2023/01/01 17:40
     - LINOZ_CHEM3: Doing LINOZ
---> DATE: 2023/01/01  UTC: 17:50  X-HRS:     17.833334
---> DATE: 2023/01/01  UTC: 18:00  X-HRS:     18.000000
HEMCO: Opening /public/home/wangyuexuanzi/3.DATA/GEOS-Chem/ExtData/HEMCO/OFFLINE_LIGHTNING/v2023-03/GEOSFP/2022/FLASH_CTH_GEOSFP_0.25x0.3125_2022_01.nc4
HEMCO WARNING: Data is treated as unitless, but file attribute suggests it is not: km-2 s-1. File: /public/home/wangyuexuanzi/3.DATA/GEOS-Chem/ExtData/HEMCO/OFFLINE_LIGHTNING/v2023-03/GEOSFP/2022/FLASH_CTH_GEOSFP_0.25x0.3125_2022_01.nc4
--> LOCATION: HCOIO_READ (HCOIO_READ_STD_MOD.F90)
     - Found all A1     met fields for 2023/01/01 18:30
     - Found all A3cld  met fields for 2023/01/01 19:30
     - Found all A3dyn  met fields for 2023/01/01 19:30
     - Found all A3mstC met fields for 2023/01/01 19:30
     - Found all A3mstE met fields for 2023/01/01 19:30
     - Found all I3     met fields for 2023/01/01 21:00
     - DO_LINEAR_CHEM: Linearized chemistry at 2023/01/01 18:00
     - LINOZ_CHEM3: Doing LINOZ
---> DATE: 2023/01/01  UTC: 18:10  X-HRS:     18.166666
---> DATE: 2023/01/01  UTC: 18:20  X-HRS:     18.333334
     - DO_LINEAR_CHEM: Linearized chemistry at 2023/01/01 18:20
     - LINOZ_CHEM3: Doing LINOZ
---> DATE: 2023/01/01  UTC: 18:30  X-HRS:     18.500000
---> DATE: 2023/01/01  UTC: 18:40  X-HRS:     18.666666
     - DO_LINEAR_CHEM: Linearized chemistry at 2023/01/01 18:40
     - LINOZ_CHEM3: Doing LINOZ
---> DATE: 2023/01/01  UTC: 18:50  X-HRS:     18.833334
---> DATE: 2023/01/01  UTC: 19:00  X-HRS:     19.000000
HEMCO: Opening /public/home/wangyuexuanzi/3.DATA/GEOS-Chem/ExtData/HEMCO/OFFLINE_LIGHTNING/v2023-03/GEOSFP/2022/FLASH_CTH_GEOSFP_0.25x0.3125_2022_01.nc4
HEMCO WARNING: Data is treated as unitless, but file attribute suggests it is not: km-2 s-1. File: /public/home/wangyuexuanzi/3.DATA/GEOS-Chem/ExtData/HEMCO/OFFLINE_LIGHTNING/v2023-03/GEOSFP/2022/FLASH_CTH_GEOSFP_0.25x0.3125_2022_01.nc4
--> LOCATION: HCOIO_READ (HCOIO_READ_STD_MOD.F90)
     - Found all A1     met fields for 2023/01/01 19:30
     - DO_LINEAR_CHEM: Linearized chemistry at 2023/01/01 19:00
     - LINOZ_CHEM3: Doing LINOZ
---> DATE: 2023/01/01  UTC: 19:10  X-HRS:     19.166666
---> DATE: 2023/01/01  UTC: 19:20  X-HRS:     19.333334
     - DO_LINEAR_CHEM: Linearized chemistry at 2023/01/01 19:20
     - LINOZ_CHEM3: Doing LINOZ
---> DATE: 2023/01/01  UTC: 19:30  X-HRS:     19.500000
---> DATE: 2023/01/01  UTC: 19:40  X-HRS:     19.666666
     - DO_LINEAR_CHEM: Linearized chemistry at 2023/01/01 19:40
     - LINOZ_CHEM3: Doing LINOZ
---> DATE: 2023/01/01  UTC: 19:50  X-HRS:     19.833334
---> DATE: 2023/01/01  UTC: 20:00  X-HRS:     20.000000
HEMCO: Opening /public/home/wangyuexuanzi/3.DATA/GEOS-Chem/ExtData/HEMCO/OFFLINE_LIGHTNING/v2023-03/GEOSFP/2022/FLASH_CTH_GEOSFP_0.25x0.3125_2022_01.nc4
HEMCO WARNING: Data is treated as unitless, but file attribute suggests it is not: km-2 s-1. File: /public/home/wangyuexuanzi/3.DATA/GEOS-Chem/ExtData/HEMCO/OFFLINE_LIGHTNING/v2023-03/GEOSFP/2022/FLASH_CTH_GEOSFP_0.25x0.3125_2022_01.nc4
--> LOCATION: HCOIO_READ (HCOIO_READ_STD_MOD.F90)
     - Found all A1     met fields for 2023/01/01 20:30
     - DO_LINEAR_CHEM: Linearized chemistry at 2023/01/01 20:00
     - LINOZ_CHEM3: Doing LINOZ
---> DATE: 2023/01/01  UTC: 20:10  X-HRS:     20.166666
---> DATE: 2023/01/01  UTC: 20:20  X-HRS:     20.333334
     - DO_LINEAR_CHEM: Linearized chemistry at 2023/01/01 20:20
     - LINOZ_CHEM3: Doing LINOZ
---> DATE: 2023/01/01  UTC: 20:30  X-HRS:     20.500000
---> DATE: 2023/01/01  UTC: 20:40  X-HRS:     20.666666
     - DO_LINEAR_CHEM: Linearized chemistry at 2023/01/01 20:40
     - LINOZ_CHEM3: Doing LINOZ
---> DATE: 2023/01/01  UTC: 20:50  X-HRS:     20.833334
---> DATE: 2023/01/01  UTC: 21:00  X-HRS:     21.000000
HEMCO: Opening /public/home/wangyuexuanzi/3.DATA/GEOS-Chem/ExtData/HEMCO/OFFLINE_LIGHTNING/v2023-03/GEOSFP/2022/FLASH_CTH_GEOSFP_0.25x0.3125_2022_01.nc4
HEMCO WARNING: Data is treated as unitless, but file attribute suggests it is not: km-2 s-1. File: /public/home/wangyuexuanzi/3.DATA/GEOS-Chem/ExtData/HEMCO/OFFLINE_LIGHTNING/v2023-03/GEOSFP/2022/FLASH_CTH_GEOSFP_0.25x0.3125_2022_01.nc4
--> LOCATION: HCOIO_READ (HCOIO_READ_STD_MOD.F90)
     - Found all A1     met fields for 2023/01/01 21:30
     - Found all A3cld  met fields for 2023/01/01 22:30
     - Found all A3dyn  met fields for 2023/01/01 22:30
     - Found all A3mstC met fields for 2023/01/01 22:30
     - Found all A3mstE met fields for 2023/01/01 22:30
     - Found all I3     met fields for 2023/01/02 00:00
     - DO_LINEAR_CHEM: Linearized chemistry at 2023/01/01 21:00
     - LINOZ_CHEM3: Doing LINOZ
---> DATE: 2023/01/01  UTC: 21:10  X-HRS:     21.166666
---> DATE: 2023/01/01  UTC: 21:20  X-HRS:     21.333334
     - DO_LINEAR_CHEM: Linearized chemistry at 2023/01/01 21:20
     - LINOZ_CHEM3: Doing LINOZ
---> DATE: 2023/01/01  UTC: 21:30  X-HRS:     21.500000
---> DATE: 2023/01/01  UTC: 21:40  X-HRS:     21.666666
     - DO_LINEAR_CHEM: Linearized chemistry at 2023/01/01 21:40
     - LINOZ_CHEM3: Doing LINOZ
---> DATE: 2023/01/01  UTC: 21:50  X-HRS:     21.833334
---> DATE: 2023/01/01  UTC: 22:00  X-HRS:     22.000000
HEMCO: Opening /public/home/wangyuexuanzi/3.DATA/GEOS-Chem/ExtData/HEMCO/OFFLINE_LIGHTNING/v2023-03/GEOSFP/2022/FLASH_CTH_GEOSFP_0.25x0.3125_2022_01.nc4
HEMCO WARNING: Data is treated as unitless, but file attribute suggests it is not: km-2 s-1. File: /public/home/wangyuexuanzi/3.DATA/GEOS-Chem/ExtData/HEMCO/OFFLINE_LIGHTNING/v2023-03/GEOSFP/2022/FLASH_CTH_GEOSFP_0.25x0.3125_2022_01.nc4
--> LOCATION: HCOIO_READ (HCOIO_READ_STD_MOD.F90)
     - Found all A1     met fields for 2023/01/01 22:30
     - DO_LINEAR_CHEM: Linearized chemistry at 2023/01/01 22:00
     - LINOZ_CHEM3: Doing LINOZ
---> DATE: 2023/01/01  UTC: 22:10  X-HRS:     22.166666
---> DATE: 2023/01/01  UTC: 22:20  X-HRS:     22.333334
     - DO_LINEAR_CHEM: Linearized chemistry at 2023/01/01 22:20
     - LINOZ_CHEM3: Doing LINOZ
---> DATE: 2023/01/01  UTC: 22:30  X-HRS:     22.500000
---> DATE: 2023/01/01  UTC: 22:40  X-HRS:     22.666666
     - DO_LINEAR_CHEM: Linearized chemistry at 2023/01/01 22:40
     - LINOZ_CHEM3: Doing LINOZ
---> DATE: 2023/01/01  UTC: 22:50  X-HRS:     22.833334
---> DATE: 2023/01/01  UTC: 23:00  X-HRS:     23.000000
HEMCO: Opening /public/home/wangyuexuanzi/3.DATA/GEOS-Chem/ExtData/HEMCO/OFFLINE_LIGHTNING/v2023-03/GEOSFP/2022/FLASH_CTH_GEOSFP_0.25x0.3125_2022_01.nc4
HEMCO WARNING: Data is treated as unitless, but file attribute suggests it is not: km-2 s-1. File: /public/home/wangyuexuanzi/3.DATA/GEOS-Chem/ExtData/HEMCO/OFFLINE_LIGHTNING/v2023-03/GEOSFP/2022/FLASH_CTH_GEOSFP_0.25x0.3125_2022_01.nc4
--> LOCATION: HCOIO_READ (HCOIO_READ_STD_MOD.F90)
     - Found all A1     met fields for 2023/01/01 23:30
     - DO_LINEAR_CHEM: Linearized chemistry at 2023/01/01 23:00
     - LINOZ_CHEM3: Doing LINOZ
---> DATE: 2023/01/01  UTC: 23:10  X-HRS:     23.166666
---> DATE: 2023/01/01  UTC: 23:20  X-HRS:     23.333334
     - DO_LINEAR_CHEM: Linearized chemistry at 2023/01/01 23:20
     - LINOZ_CHEM3: Doing LINOZ
---> DATE: 2023/01/01  UTC: 23:30  X-HRS:     23.500000
---> DATE: 2023/01/01  UTC: 23:40  X-HRS:     23.666666
     - DO_LINEAR_CHEM: Linearized chemistry at 2023/01/01 23:40
     - LINOZ_CHEM3: Doing LINOZ
---> DATE: 2023/01/01  UTC: 23:50  X-HRS:     23.833334
---> DATE: 2023/01/02  UTC: 00:00  X-HRS:     24.000000
HEMCO: Opening /public/home/wangyuexuanzi/3.DATA/GEOS-Chem/ExtData/HEMCO/SOILNOX/v2014-07/soilNOx.fert_res.generic.05x05.nc
HEMCO: Opening /public/home/wangyuexuanzi/3.DATA/GEOS-Chem/ExtData/HEMCO/MULTI_ICE/v2021-07/multiyearice.merra2.05x0625.2020.nc
HEMCO: Opening /public/home/wangyuexuanzi/3.DATA/GEOS-Chem/ExtData/HEMCO/GFED4/v2023-03/2023/GFED4_dailyfrac_gen.025x025.202301.nc
HEMCO: Opening /public/work/wanghuaxuan/4wyxz/ExtData/GEOS_2x2.5/GEOS_FP/2023/01/GEOSFP.20230102.A1.2x25.nc
HEMCO WARNING: Data is treated as unitless, but file attribute suggests it is not: W m-2. File: /public/work/wanghuaxuan/4wyxz/ExtData/GEOS_2x2.5/GEOS_FP/2023/01/GEOSFP.20230102.A1.2x25.nc
--> LOCATION: HCOIO_READ (HCOIO_READ_STD_MOD.F90)
HEMCO WARNING: Data is treated as unitless, but file attribute suggests it is not: kg m-2 s-2. File: /public/work/wanghuaxuan/4wyxz/ExtData/GEOS_2x2.5/GEOS_FP/2023/01/GEOSFP.20230102.A1.2x25.nc
--> LOCATION: HCOIO_READ (HCOIO_READ_STD_MOD.F90)
HEMCO WARNING: Data is treated as unitless, but file attribute suggests it is not: W m-2. File: /public/work/wanghuaxuan/4wyxz/ExtData/GEOS_2x2.5/GEOS_FP/2023/01/GEOSFP.20230102.A1.2x25.nc
--> LOCATION: HCOIO_READ (HCOIO_READ_STD_MOD.F90)
HEMCO WARNING: Data is treated as unitless, but file attribute suggests it is not: m2 m-2. File: /public/work/wanghuaxuan/4wyxz/ExtData/GEOS_2x2.5/GEOS_FP/2023/01/GEOSFP.20230102.A1.2x25.nc
--> LOCATION: HCOIO_READ (HCOIO_READ_STD_MOD.F90)
HEMCO WARNING: Data is treated as unitless, but file attribute suggests it is not: W m-2. File: /public/work/wanghuaxuan/4wyxz/ExtData/GEOS_2x2.5/GEOS_FP/2023/01/GEOSFP.20230102.A1.2x25.nc
--> LOCATION: HCOIO_READ (HCOIO_READ_STD_MOD.F90)
HEMCO WARNING: Data is treated as unitless, but file attribute suggests it is not: W m-2. File: /public/work/wanghuaxuan/4wyxz/ExtData/GEOS_2x2.5/GEOS_FP/2023/01/GEOSFP.20230102.A1.2x25.nc
--> LOCATION: HCOIO_READ (HCOIO_READ_STD_MOD.F90)
HEMCO WARNING: Data is treated as unitless, but file attribute suggests it is not: W m-2. File: /public/work/wanghuaxuan/4wyxz/ExtData/GEOS_2x2.5/GEOS_FP/2023/01/GEOSFP.20230102.A1.2x25.nc
--> LOCATION: HCOIO_READ (HCOIO_READ_STD_MOD.F90)
HEMCO WARNING: Data is treated as unitless, but file attribute suggests it is not: kg m-2 s-1. File: /public/work/wanghuaxuan/4wyxz/ExtData/GEOS_2x2.5/GEOS_FP/2023/01/GEOSFP.20230102.A1.2x25.nc
--> LOCATION: HCOIO_READ (HCOIO_READ_STD_MOD.F90)
HEMCO WARNING: Data is treated as unitless, but file attribute suggests it is not: kg m-2 s-1. File: /public/work/wanghuaxuan/4wyxz/ExtData/GEOS_2x2.5/GEOS_FP/2023/01/GEOSFP.20230102.A1.2x25.nc
--> LOCATION: HCOIO_READ (HCOIO_READ_STD_MOD.F90)
HEMCO WARNING: Data is treated as unitless, but file attribute suggests it is not: kg m-2 s-1. File: /public/work/wanghuaxuan/4wyxz/ExtData/GEOS_2x2.5/GEOS_FP/2023/01/GEOSFP.20230102.A1.2x25.nc
--> LOCATION: HCOIO_READ (HCOIO_READ_STD_MOD.F90)
HEMCO WARNING: Data is treated as unitless, but file attribute suggests it is not: kg m-2 s-1. File: /public/work/wanghuaxuan/4wyxz/ExtData/GEOS_2x2.5/GEOS_FP/2023/01/GEOSFP.20230102.A1.2x25.nc
--> LOCATION: HCOIO_READ (HCOIO_READ_STD_MOD.F90)
HEMCO WARNING: Data is treated as unitless, but file attribute suggests it is not: kg m-2 s-1. File: /public/work/wanghuaxuan/4wyxz/ExtData/GEOS_2x2.5/GEOS_FP/2023/01/GEOSFP.20230102.A1.2x25.nc
--> LOCATION: HCOIO_READ (HCOIO_READ_STD_MOD.F90)
HEMCO WARNING: Data is treated as unitless, but file attribute suggests it is not: kg kg-1. File: /public/work/wanghuaxuan/4wyxz/ExtData/GEOS_2x2.5/GEOS_FP/2023/01/GEOSFP.20230102.A1.2x25.nc
--> LOCATION: HCOIO_READ (HCOIO_READ_STD_MOD.F90)
HEMCO WARNING: Data is treated as unitless, but file attribute suggests it is not: kg m-2. File: /public/work/wanghuaxuan/4wyxz/ExtData/GEOS_2x2.5/GEOS_FP/2023/01/GEOSFP.20230102.A1.2x25.nc
--> LOCATION: HCOIO_READ (HCOIO_READ_STD_MOD.F90)
HEMCO WARNING: Data is treated as unitless, but file attribute suggests it is not: W m-2. File: /public/work/wanghuaxuan/4wyxz/ExtData/GEOS_2x2.5/GEOS_FP/2023/01/GEOSFP.20230102.A1.2x25.nc
--> LOCATION: HCOIO_READ (HCOIO_READ_STD_MOD.F90)
HEMCO WARNING: Data is treated as unitless, but file attribute suggests it is not: m s-1. File: /public/work/wanghuaxuan/4wyxz/ExtData/GEOS_2x2.5/GEOS_FP/2023/01/GEOSFP.20230102.A1.2x25.nc
--> LOCATION: HCOIO_READ (HCOIO_READ_STD_MOD.F90)
HEMCO WARNING: Data is treated as unitless, but file attribute suggests it is not: m s-1. File: /public/work/wanghuaxuan/4wyxz/ExtData/GEOS_2x2.5/GEOS_FP/2023/01/GEOSFP.20230102.A1.2x25.nc
--> LOCATION: HCOIO_READ (HCOIO_READ_STD_MOD.F90)
HEMCO WARNING: Data is treated as unitless, but file attribute suggests it is not: m s-1. File: /public/work/wanghuaxuan/4wyxz/ExtData/GEOS_2x2.5/GEOS_FP/2023/01/GEOSFP.20230102.A1.2x25.nc
--> LOCATION: HCOIO_READ (HCOIO_READ_STD_MOD.F90)
HEMCO: Opening /public/work/wanghuaxuan/4wyxz/ExtData/GEOS_2x2.5/GEOS_FP/2023/01/GEOSFP.20230102.A3cld.2x25.nc
HEMCO WARNING: Data is treated as unitless, but file attribute suggests it is not: kg kg-1. File: /public/work/wanghuaxuan/4wyxz/ExtData/GEOS_2x2.5/GEOS_FP/2023/01/GEOSFP.20230102.A3cld.2x25.nc
--> LOCATION: HCOIO_READ (HCOIO_READ_STD_MOD.F90)
HEMCO WARNING: Data is treated as unitless, but file attribute suggests it is not: kg kg-1. File: /public/work/wanghuaxuan/4wyxz/ExtData/GEOS_2x2.5/GEOS_FP/2023/01/GEOSFP.20230102.A3cld.2x25.nc
--> LOCATION: HCOIO_READ (HCOIO_READ_STD_MOD.F90)
HEMCO: Opening /public/work/wanghuaxuan/4wyxz/ExtData/GEOS_2x2.5/GEOS_FP/2023/01/GEOSFP.20230102.A3dyn.2x25.nc
HEMCO WARNING: Data is treated as unitless, but file attribute suggests it is not: kg m-2 s-2. File: /public/work/wanghuaxuan/4wyxz/ExtData/GEOS_2x2.5/GEOS_FP/2023/01/GEOSFP.20230102.A3dyn.2x25.nc
--> LOCATION: HCOIO_READ (HCOIO_READ_STD_MOD.F90)
HEMCO WARNING: Data is treated as unitless, but file attribute suggests it is not: Pa s-1. File: /public/work/wanghuaxuan/4wyxz/ExtData/GEOS_2x2.5/GEOS_FP/2023/01/GEOSFP.20230102.A3dyn.2x25.nc
--> LOCATION: HCOIO_READ (HCOIO_READ_STD_MOD.F90)
HEMCO WARNING: Data is treated as unitless, but file attribute suggests it is not: m s-1. File: /public/work/wanghuaxuan/4wyxz/ExtData/GEOS_2x2.5/GEOS_FP/2023/01/GEOSFP.20230102.A3dyn.2x25.nc
--> LOCATION: HCOIO_READ (HCOIO_READ_STD_MOD.F90)
HEMCO WARNING: Data is treated as unitless, but file attribute suggests it is not: m s-1. File: /public/work/wanghuaxuan/4wyxz/ExtData/GEOS_2x2.5/GEOS_FP/2023/01/GEOSFP.20230102.A3dyn.2x25.nc
--> LOCATION: HCOIO_READ (HCOIO_READ_STD_MOD.F90)
HEMCO: Opening /public/work/wanghuaxuan/4wyxz/ExtData/GEOS_2x2.5/GEOS_FP/2023/01/GEOSFP.20230102.A3mstC.2x25.nc
HEMCO WARNING: Data is treated as unitless, but file attribute suggests it is not: kg kg-1 s-1. File: /public/work/wanghuaxuan/4wyxz/ExtData/GEOS_2x2.5/GEOS_FP/2023/01/GEOSFP.20230102.A3mstC.2x25.nc
--> LOCATION: HCOIO_READ (HCOIO_READ_STD_MOD.F90)
HEMCO WARNING: Data is treated as unitless, but file attribute suggests it is not: kg kg-1 s-1. File: /public/work/wanghuaxuan/4wyxz/ExtData/GEOS_2x2.5/GEOS_FP/2023/01/GEOSFP.20230102.A3mstC.2x25.nc
--> LOCATION: HCOIO_READ (HCOIO_READ_STD_MOD.F90)
HEMCO WARNING: Data is treated as unitless, but file attribute suggests it is not: kg kg-1 s-1. File: /public/work/wanghuaxuan/4wyxz/ExtData/GEOS_2x2.5/GEOS_FP/2023/01/GEOSFP.20230102.A3mstC.2x25.nc
--> LOCATION: HCOIO_READ (HCOIO_READ_STD_MOD.F90)
HEMCO WARNING: Data is treated as unitless, but file attribute suggests it is not: kg kg-1. File: /public/work/wanghuaxuan/4wyxz/ExtData/GEOS_2x2.5/GEOS_FP/2023/01/GEOSFP.20230102.A3mstC.2x25.nc
--> LOCATION: HCOIO_READ (HCOIO_READ_STD_MOD.F90)
HEMCO: Opening /public/work/wanghuaxuan/4wyxz/ExtData/GEOS_2x2.5/GEOS_FP/2023/01/GEOSFP.20230102.A3mstE.2x25.nc
HEMCO WARNING: Data is treated as unitless, but file attribute suggests it is not: kg m-2 s-2. File: /public/work/wanghuaxuan/4wyxz/ExtData/GEOS_2x2.5/GEOS_FP/2023/01/GEOSFP.20230102.A3mstE.2x25.nc
--> LOCATION: HCOIO_READ (HCOIO_READ_STD_MOD.F90)
HEMCO WARNING: Data is treated as unitless, but file attribute suggests it is not: kg m-2 s-1. File: /public/work/wanghuaxuan/4wyxz/ExtData/GEOS_2x2.5/GEOS_FP/2023/01/GEOSFP.20230102.A3mstE.2x25.nc
--> LOCATION: HCOIO_READ (HCOIO_READ_STD_MOD.F90)
HEMCO WARNING: Data is treated as unitless, but file attribute suggests it is not: kg m-2 s-1. File: /public/work/wanghuaxuan/4wyxz/ExtData/GEOS_2x2.5/GEOS_FP/2023/01/GEOSFP.20230102.A3mstE.2x25.nc
--> LOCATION: HCOIO_READ (HCOIO_READ_STD_MOD.F90)
HEMCO WARNING: Data is treated as unitless, but file attribute suggests it is not: kg m-2 s-1. File: /public/work/wanghuaxuan/4wyxz/ExtData/GEOS_2x2.5/GEOS_FP/2023/01/GEOSFP.20230102.A3mstE.2x25.nc
--> LOCATION: HCOIO_READ (HCOIO_READ_STD_MOD.F90)
HEMCO WARNING: Data is treated as unitless, but file attribute suggests it is not: kg m-2 s-1. File: /public/work/wanghuaxuan/4wyxz/ExtData/GEOS_2x2.5/GEOS_FP/2023/01/GEOSFP.20230102.A3mstE.2x25.nc
--> LOCATION: HCOIO_READ (HCOIO_READ_STD_MOD.F90)
HEMCO: Opening /public/work/wanghuaxuan/4wyxz/ExtData/GEOS_2x2.5/GEOS_FP/2023/01/GEOSFP.20230102.I3.2x25.nc
HEMCO WARNING: Data is treated as unitless, but file attribute suggests it is not: kg kg-1. File: /public/work/wanghuaxuan/4wyxz/ExtData/GEOS_2x2.5/GEOS_FP/2023/01/GEOSFP.20230102.I3.2x25.nc
--> LOCATION: HCOIO_READ (HCOIO_READ_STD_MOD.F90)
HEMCO: Opening /public/work/wanghuaxuan/4wyxz/ExtData/GEOS_2x2.5/GEOS_FP/2023/01/GEOSFP.20230103.I3.2x25.nc
HEMCO WARNING: Data is treated as unitless, but file attribute suggests it is not: kg kg-1. File: /public/work/wanghuaxuan/4wyxz/ExtData/GEOS_2x2.5/GEOS_FP/2023/01/GEOSFP.20230103.I3.2x25.nc
--> LOCATION: HCOIO_READ (HCOIO_READ_STD_MOD.F90)
HEMCO: Opening /public/home/wangyuexuanzi/3.DATA/GEOS-Chem/ExtData/HEMCO/Yuan_XLAI/v2021-06/Yuan_proc_MODIS_XLAI.025x025.2020.nc
HEMCO: Opening /public/home/wangyuexuanzi/3.DATA/GEOS-Chem/ExtData/HEMCO/OFFLINE_LIGHTNING/v2023-03/GEOSFP/2022/FLASH_CTH_GEOSFP_0.25x0.3125_2022_01.nc4
HEMCO WARNING: Data is treated as unitless, but file attribute suggests it is not: km-2 s-1. File: /public/home/wangyuexuanzi/3.DATA/GEOS-Chem/ExtData/HEMCO/OFFLINE_LIGHTNING/v2023-03/GEOSFP/2022/FLASH_CTH_GEOSFP_0.25x0.3125_2022_01.nc4
--> LOCATION: HCOIO_READ (HCOIO_READ_STD_MOD.F90)
     - Found all A1     met fields for 2023/01/02 00:30
     - Found all A3cld  met fields for 2023/01/02 01:30
     - Found all A3dyn  met fields for 2023/01/02 01:30
     - Found all A3mstC met fields for 2023/01/02 01:30
     - Found all A3mstE met fields for 2023/01/02 01:30
     - Found all I3     met fields for 2023/01/02 03:00
     - DO_LINEAR_CHEM: Linearized chemistry at 2023/01/02 00:00
     - LINOZ_CHEM3: Doing LINOZ
---> DATE: 2023/01/02  UTC: 00:10  X-HRS:     24.166666
---> DATE: 2023/01/02  UTC: 00:20  X-HRS:     24.333334
     - DO_LINEAR_CHEM: Linearized chemistry at 2023/01/02 00:20
     - LINOZ_CHEM3: Doing LINOZ
